MODEL 1
REMARK VINA RESULT:     -11.5      0.000      0.000
REMARK  14 active torsions:
REMARK  status: ('A' for Active; 'I' for Inactive)
REMARK    1  A    between atoms: N1_1  and  C31_43 
REMARK    2  A    between atoms: C2_3  and  C3_4 
REMARK       I    between atoms: C3_4  and  N2_6 
REMARK    3  A    between atoms: N2_6  and  C4_8 
REMARK    4  A    between atoms: N3_12  and  C10_15 
REMARK    5  A    between atoms: C10_15  and  C11_16 
REMARK    6  A    between atoms: C11_16  and  O2_17 
REMARK    7  A    between atoms: C11_16  and  C12_19 
REMARK    8  A    between atoms: C12_19  and  C13_20 
REMARK    9  A    between atoms: C13_20  and  C21_28 
REMARK   10  A    between atoms: C13_20  and  C14_21 
REMARK   11  A    between atoms: C14_21  and  C15_22 
REMARK       I    between atoms: C21_28  and  N4_30 
REMARK   12  A    between atoms: N4_30  and  C22_32 
REMARK   13  A    between atoms: C23_33  and  O4_34 
REMARK   14  A    between atoms: C31_43  and  C32_44 
ROOT
HETATM    1  N1  MK1 B 902       9.192  24.025   3.100  1.00 28.25     0.096 N 
HETATM    2  C1  MK1 B 902       9.458  24.181   4.555  1.00 30.30     0.307 C 
HETATM    3  C2  MK1 B 902      10.623  25.009   5.060  1.00 27.27     0.200 C 
HETATM    4  N3  MK1 B 902      11.791  24.324   4.402  1.00 28.91    -0.395 N 
HETATM    5  C8  MK1 B 902      11.658  23.871   2.995  1.00 26.24     0.148 C 
HETATM    6  C9  MK1 B 902      10.297  23.384   2.541  1.00 27.47     0.292 C 
ENDROOT
BRANCH   1   7
HETATM    7  C31 MK1 B 902       7.893  23.462   2.711  1.00 36.25     0.312 C 
BRANCH   7   8
HETATM    8  C32 MK1 B 902       6.586  23.966   3.333  1.00 42.75    -0.015 A 
HETATM    9  C36 MK1 B 902       5.670  23.022   3.748  1.00 44.71     0.011 A 
HETATM   10  C35 MK1 B 902       4.472  23.474   4.296  1.00 49.34     0.018 A 
HETATM   11  C34 MK1 B 902       4.230  24.846   4.408  1.00 50.60     0.087 A 
HETATM   12  N5  MK1 B 902       5.099  25.862   4.015  1.00 51.38    -0.375 N 
HETATM   13  C33 MK1 B 902       6.280  25.327   3.475  1.00 47.41     0.096 A 
HETATM   14  H5  MK1 B 902       4.904  26.859   4.106  1.00  0.00     0.164 HD
ENDBRANCH   7   8
ENDBRANCH   1   7
BRANCH   3  15
HETATM   15  C3  MK1 B 902      10.655  24.917   6.561  1.00 28.85     0.242 C 
HETATM   16  O1  MK1 B 902      10.822  23.836   7.111  1.00 29.59    -0.271 OA
HETATM   17  N2  MK1 B 902      10.483  26.039   7.232  1.00 22.29    -0.351 N 
HETATM   18  H2  MK1 B 902      10.287  26.858   6.656  1.00  0.00     0.163 HD
BRANCH  17  19
HETATM   19  C4  MK1 B 902      10.528  26.292   8.637  1.00 23.47     0.022 C 
HETATM   20  C7  MK1 B 902       9.576  25.486   9.408  1.00 22.75     0.037 C 
HETATM   21  C5  MK1 B 902      10.064  27.745   8.847  1.00 27.66     0.037 C 
HETATM   22  C6  MK1 B 902      11.785  26.103   9.189  1.00 21.71     0.037 C 
ENDBRANCH  17  19
ENDBRANCH   3  15
BRANCH   4  23
HETATM   23  C10 MK1 B 902      13.103  24.911   4.589  1.00 20.86     0.149 C 
BRANCH  23  24
HETATM   24  C11 MK1 B 902      14.148  23.942   5.144  1.00 21.68     0.136 C 
BRANCH  24  25
HETATM   25  O2  MK1 B 902      15.250  24.678   4.702  1.00 15.87    -0.394 OA
HETATM   26  H2  MK1 B 902      15.230  24.693   3.752  1.00  0.00     0.210 HD
ENDBRANCH  24  25
BRANCH  24  27
HETATM   27  C12 MK1 B 902      14.344  23.647   6.642  1.00 21.49     0.047 C 
BRANCH  27  28
HETATM   28  C13 MK1 B 902      15.484  22.734   7.117  1.00 26.89     0.084 C 
BRANCH  28  29
HETATM   29  C21 MK1 B 902      15.445  21.370   6.440  1.00 29.35     0.222 C 
HETATM   30  N4  MK1 B 902      16.615  20.925   5.987  1.00 31.19    -0.350 N 
HETATM   31  H4  MK1 B 902      17.393  21.577   5.893  1.00  0.00     0.163 HD
HETATM   32  O3  MK1 B 902      14.403  20.698   6.431  1.00 32.66    -0.273 OA
BRANCH  30  33
HETATM   33  C22 MK1 B 902      16.810  19.532   5.624  1.00 29.22     0.147 C 
HETATM   34  C30 MK1 B 902      16.571  19.114   4.149  1.00 31.86    -0.027 A 
HETATM   35  C29 MK1 B 902      15.666  19.491   3.208  1.00 27.70     0.010 A 
HETATM   36  C25 MK1 B 902      17.603  18.042   3.697  1.00 31.29    -0.047 A 
HETATM   37  C28 MK1 B 902      15.675  18.952   1.929  1.00 29.01     0.001 A 
HETATM   38  C27 MK1 B 902      16.620  17.996   1.529  1.00 28.00     0.001 A 
HETATM   39  C26 MK1 B 902      17.595  17.533   2.419  1.00 32.00     0.008 A 
HETATM   40  C24 MK1 B 902      18.437  17.891   4.945  1.00 32.05     0.073 C 
HETATM   41  C23 MK1 B 902      18.239  19.074   5.864  1.00 28.82     0.149 C 
BRANCH  41  42
HETATM   42  O4  MK1 B 902      19.143  20.144   5.630  1.00 28.32    -0.393 OA
HETATM   43  H4  MK1 B 902      19.414  20.532   6.454  1.00  0.00     0.210 HD
ENDBRANCH  41  42
ENDBRANCH  30  33
ENDBRANCH  28  29
BRANCH  28  44
HETATM   44  C14 MK1 B 902      15.473  22.533   8.642  1.00 28.67     0.052 C 
BRANCH  44  45
HETATM   45  C15 MK1 B 902      16.583  21.665   9.109  1.00 26.89    -0.057 A 
HETATM   46  C16 MK1 B 902      17.921  21.929   8.810  1.00 29.22     0.007 A 
HETATM   47  C17 MK1 B 902      18.923  21.069   9.236  1.00 29.22     0.001 A 
HETATM   48  C18 MK1 B 902      18.569  19.934   9.968  1.00 30.97     0.000 A 
HETATM   49  C19 MK1 B 902      17.229  19.670  10.277  1.00 29.25     0.001 A 
HETATM   50  C20 MK1 B 902      16.233  20.544   9.842  1.00 29.96     0.007 A 
ENDBRANCH  44  45
ENDBRANCH  28  44
ENDBRANCH  27  28
ENDBRANCH  24  27
ENDBRANCH  23  24
ENDBRANCH   4  23
TORSDOF 14
ENDMDL
MODEL 2
REMARK VINA RESULT:     -10.3      2.046     10.965
REMARK  14 active torsions:
REMARK  status: ('A' for Active; 'I' for Inactive)
REMARK    1  A    between atoms: N1_1  and  C31_43 
REMARK    2  A    between atoms: C2_3  and  C3_4 
REMARK       I    between atoms: C3_4  and  N2_6 
REMARK    3  A    between atoms: N2_6  and  C4_8 
REMARK    4  A    between atoms: N3_12  and  C10_15 
REMARK    5  A    between atoms: C10_15  and  C11_16 
REMARK    6  A    between atoms: C11_16  and  O2_17 
REMARK    7  A    between atoms: C11_16  and  C12_19 
REMARK    8  A    between atoms: C12_19  and  C13_20 
REMARK    9  A    between atoms: C13_20  and  C21_28 
REMARK   10  A    between atoms: C13_20  and  C14_21 
REMARK   11  A    between atoms: C14_21  and  C15_22 
REMARK       I    between atoms: C21_28  and  N4_30 
REMARK   12  A    between atoms: N4_30  and  C22_32 
REMARK   13  A    between atoms: C23_33  and  O4_34 
REMARK   14  A    between atoms: C31_43  and  C32_44 
ROOT
HETATM    1  N1  MK1 B 902      16.149  21.126   9.091  1.00 28.25     0.096 N 
HETATM    2  C1  MK1 B 902      15.702  20.473   7.832  1.00 30.30     0.307 C 
HETATM    3  C2  MK1 B 902      15.937  21.120   6.481  1.00 27.27     0.200 C 
HETATM    4  N3  MK1 B 902      15.230  22.438   6.647  1.00 28.91    -0.395 N 
HETATM    5  C8  MK1 B 902      15.358  23.164   7.935  1.00 26.24     0.148 C 
HETATM    6  C9  MK1 B 902      15.464  22.335   9.199  1.00 27.47     0.292 C 
ENDROOT
BRANCH   1   7
HETATM    7  C31 MK1 B 902      16.148  20.307  10.310  1.00 36.25     0.312 C 
BRANCH   7   8
HETATM    8  C32 MK1 B 902      17.061  19.084  10.451  1.00 42.75    -0.015 A 
HETATM    9  C36 MK1 B 902      16.486  17.901  10.865  1.00 44.71     0.011 A 
HETATM   10  C35 MK1 B 902      17.314  16.791  11.015  1.00 49.34     0.018 A 
HETATM   11  C34 MK1 B 902      18.683  16.902  10.750  1.00 50.60     0.087 A 
HETATM   12  N5  MK1 B 902      19.341  18.056  10.329  1.00 51.38    -0.375 N 
HETATM   13  C33 MK1 B 902      18.440  19.126  10.202  1.00 47.41     0.096 A 
HETATM   14  H5  MK1 B 902      20.342  18.116  10.140  1.00  0.00     0.164 HD
ENDBRANCH   7   8
ENDBRANCH   1   7
BRANCH   3  15
HETATM   15  C3  MK1 B 902      15.319  20.248   5.423  1.00 28.85     0.242 C 
HETATM   16  O1  MK1 B 902      14.123  19.987   5.458  1.00 29.59    -0.271 OA
HETATM   17  N2  MK1 B 902      16.122  19.782   4.487  1.00 22.29    -0.351 N 
HETATM   18  H2  MK1 B 902      17.107  20.018   4.611  1.00  0.00     0.163 HD
BRANCH  17  19
HETATM   19  C4  MK1 B 902      15.835  18.999   3.328  1.00 23.47     0.022 C 
HETATM   20  C7  MK1 B 902      15.187  17.719   3.631  1.00 22.75     0.037 C 
HETATM   21  C5  MK1 B 902      17.187  18.610   2.702  1.00 27.66     0.037 C 
HETATM   22  C6  MK1 B 902      15.047  19.661   2.400  1.00 21.71     0.037 C 
ENDBRANCH  17  19
ENDBRANCH   3  15
BRANCH   4  23
HETATM   23  C10 MK1 B 902      15.321  23.389   5.557  1.00 20.86     0.149 C 
BRANCH  23  24
HETATM   24  C11 MK1 B 902      13.977  23.982   5.131  1.00 21.68     0.136 C 
BRANCH  24  25
HETATM   25  O2  MK1 B 902      14.520  25.150   4.592  1.00 15.87    -0.394 OA
HETATM   26  H2  MK1 B 902      14.456  25.833   5.248  1.00  0.00     0.210 HD
ENDBRANCH  24  25
BRANCH  24  27
HETATM   27  C12 MK1 B 902      13.052  23.354   4.072  1.00 21.49     0.047 C 
BRANCH  27  28
HETATM   28  C13 MK1 B 902      11.783  24.085   3.610  1.00 26.89     0.084 C 
BRANCH  28  29
HETATM   29  C21 MK1 B 902      10.866  24.434   4.776  1.00 29.35     0.222 C 
HETATM   30  N4  MK1 B 902      10.390  25.677   4.774  1.00 31.19    -0.350 N 
HETATM   31  H4  MK1 B 902      10.824  26.376   4.172  1.00  0.00     0.163 HD
HETATM   32  O3  MK1 B 902      10.518  23.564   5.587  1.00 32.66    -0.273 OA
BRANCH  30  33
HETATM   33  C22 MK1 B 902       9.265  26.061   5.610  1.00 29.22     0.147 C 
HETATM   34  C30 MK1 B 902       9.558  26.653   7.014  1.00 31.86    -0.027 A 
HETATM   35  C29 MK1 B 902      10.491  26.381   7.964  1.00 27.70     0.010 A 
HETATM   36  C25 MK1 B 902       8.553  27.787   7.364  1.00 31.29    -0.047 A 
HETATM   37  C28 MK1 B 902      10.538  27.081   9.162  1.00 29.01     0.001 A 
HETATM   38  C27 MK1 B 902       9.634  28.112   9.460  1.00 28.00     0.001 A 
HETATM   39  C26 MK1 B 902       8.630  28.471   8.555  1.00 32.00     0.008 A 
HETATM   40  C24 MK1 B 902       7.711  27.830   6.113  1.00 32.05     0.073 C 
HETATM   41  C23 MK1 B 902       8.424  27.151   4.967  1.00 28.82     0.149 C 
BRANCH  41  42
HETATM   42  O4  MK1 B 902       9.246  28.021   4.203  1.00 28.32    -0.393 OA
HETATM   43  H4  MK1 B 902       8.789  28.300   3.418  1.00  0.00     0.210 HD
ENDBRANCH  41  42
ENDBRANCH  30  33
ENDBRANCH  28  29
BRANCH  28  44
HETATM   44  C14 MK1 B 902      10.985  23.272   2.576  1.00 28.67     0.052 C 
BRANCH  44  45
HETATM   45  C15 MK1 B 902       9.674  23.889   2.257  1.00 26.89    -0.057 A 
HETATM   46  C16 MK1 B 902       9.554  25.189   1.762  1.00 29.22     0.007 A 
HETATM   47  C17 MK1 B 902       8.306  25.739   1.513  1.00 29.22     0.001 A 
HETATM   48  C18 MK1 B 902       7.169  24.969   1.768  1.00 30.97     0.000 A 
HETATM   49  C19 MK1 B 902       7.284  23.662   2.257  1.00 29.25     0.001 A 
HETATM   50  C20 MK1 B 902       8.547  23.123   2.502  1.00 29.96     0.007 A 
ENDBRANCH  44  45
ENDBRANCH  28  44
ENDBRANCH  27  28
ENDBRANCH  24  27
ENDBRANCH  23  24
ENDBRANCH   4  23
TORSDOF 14
ENDMDL
MODEL 3
REMARK VINA RESULT:     -10.2      2.048     10.310
REMARK  14 active torsions:
REMARK  status: ('A' for Active; 'I' for Inactive)
REMARK    1  A    between atoms: N1_1  and  C31_43 
REMARK    2  A    between atoms: C2_3  and  C3_4 
REMARK       I    between atoms: C3_4  and  N2_6 
REMARK    3  A    between atoms: N2_6  and  C4_8 
REMARK    4  A    between atoms: N3_12  and  C10_15 
REMARK    5  A    between atoms: C10_15  and  C11_16 
REMARK    6  A    between atoms: C11_16  and  O2_17 
REMARK    7  A    between atoms: C11_16  and  C12_19 
REMARK    8  A    between atoms: C12_19  and  C13_20 
REMARK    9  A    between atoms: C13_20  and  C21_28 
REMARK   10  A    between atoms: C13_20  and  C14_21 
REMARK   11  A    between atoms: C14_21  and  C15_22 
REMARK       I    between atoms: C21_28  and  N4_30 
REMARK   12  A    between atoms: N4_30  and  C22_32 
REMARK   13  A    between atoms: C23_33  and  O4_34 
REMARK   14  A    between atoms: C31_43  and  C32_44 
ROOT
HETATM    1  N1  MK1 B 902      16.556  21.203   9.109  1.00 28.25     0.096 N 
HETATM    2  C1  MK1 B 902      16.123  20.430   7.914  1.00 30.30     0.307 C 
HETATM    3  C2  MK1 B 902      16.204  21.020   6.521  1.00 27.27     0.200 C 
HETATM    4  N3  MK1 B 902      15.352  22.252   6.662  1.00 28.91    -0.395 N 
HETATM    5  C8  MK1 B 902      15.460  23.062   7.901  1.00 26.24     0.148 C 
HETATM    6  C9  MK1 B 902      15.735  22.327   9.197  1.00 27.47     0.292 C 
ENDROOT
BRANCH   1   7
HETATM    7  C31 MK1 B 902      16.721  20.463  10.366  1.00 36.25     0.312 C 
BRANCH   7   8
HETATM    8  C32 MK1 B 902      17.273  19.033  10.383  1.00 42.75    -0.015 A 
HETATM    9  C36 MK1 B 902      18.558  18.837   9.925  1.00 44.71     0.011 A 
HETATM   10  C35 MK1 B 902      19.058  17.538   9.920  1.00 49.34     0.018 A 
HETATM   11  C34 MK1 B 902      18.259  16.482  10.368  1.00 50.60     0.087 A 
HETATM   12  N5  MK1 B 902      16.954  16.592  10.846  1.00 51.38    -0.375 N 
HETATM   13  C33 MK1 B 902      16.525  17.929  10.819  1.00 47.41     0.096 A 
HETATM   14  H5  MK1 B 902      16.387  15.808  11.169  1.00  0.00     0.164 HD
ENDBRANCH   7   8
ENDBRANCH   1   7
BRANCH   3  15
HETATM   15  C3  MK1 B 902      15.640  20.021   5.549  1.00 28.85     0.242 C 
HETATM   16  O1  MK1 B 902      14.510  19.574   5.706  1.00 29.59    -0.271 OA
HETATM   17  N2  MK1 B 902      16.418  19.652   4.550  1.00 22.29    -0.351 N 
HETATM   18  H2  MK1 B 902      17.359  20.046   4.572  1.00  0.00     0.163 HD
BRANCH  17  19
HETATM   19  C4  MK1 B 902      16.156  18.789   3.443  1.00 23.47     0.022 C 
HETATM   20  C7  MK1 B 902      17.330  18.544   2.600  1.00 22.75     0.037 C 
HETATM   21  C5  MK1 B 902      15.166  19.527   2.523  1.00 27.66     0.037 C 
HETATM   22  C6  MK1 B 902      15.641  17.558   3.817  1.00 21.71     0.037 C 
ENDBRANCH  17  19
ENDBRANCH   3  15
BRANCH   4  23
HETATM   23  C10 MK1 B 902      15.266  23.142   5.521  1.00 20.86     0.149 C 
BRANCH  23  24
HETATM   24  C11 MK1 B 902      13.860  23.270   4.932  1.00 21.68     0.136 C 
BRANCH  24  25
HETATM   25  O2  MK1 B 902      14.180  22.673   3.711  1.00 15.87    -0.394 OA
HETATM   26  H2  MK1 B 902      13.638  21.899   3.611  1.00  0.00     0.210 HD
ENDBRANCH  24  25
BRANCH  24  27
HETATM   27  C12 MK1 B 902      12.617  22.559   5.498  1.00 21.49     0.047 C 
BRANCH  27  28
HETATM   28  C13 MK1 B 902      11.256  23.269   5.529  1.00 26.89     0.084 C 
BRANCH  28  29
HETATM   29  C21 MK1 B 902      10.473  23.063   4.238  1.00 29.35     0.222 C 
HETATM   30  N4  MK1 B 902       9.326  23.731   4.155  1.00 31.19    -0.350 N 
HETATM   31  H4  MK1 B 902       8.920  24.132   5.001  1.00  0.00     0.163 HD
HETATM   32  O3  MK1 B 902      10.955  22.403   3.305  1.00 32.66    -0.273 OA
BRANCH  30  33
HETATM   33  C22 MK1 B 902       8.636  23.905   2.888  1.00 29.22     0.147 C 
HETATM   34  C30 MK1 B 902       7.085  23.908   2.886  1.00 31.86    -0.027 A 
HETATM   35  C29 MK1 B 902       6.151  23.208   3.583  1.00 27.70     0.010 A 
HETATM   36  C25 MK1 B 902       6.528  24.939   1.864  1.00 31.29    -0.047 A 
HETATM   37  C28 MK1 B 902       4.792  23.413   3.389  1.00 29.01     0.001 A 
HETATM   38  C27 MK1 B 902       4.301  24.356   2.473  1.00 28.00     0.001 A 
HETATM   39  C26 MK1 B 902       5.176  25.128   1.701  1.00 32.00     0.008 A 
HETATM   40  C24 MK1 B 902       7.804  25.527   1.314  1.00 32.05     0.073 C 
HETATM   41  C23 MK1 B 902       8.965  25.238   2.238  1.00 28.82     0.149 C 
BRANCH  41  42
HETATM   42  O4  MK1 B 902       9.170  26.232   3.232  1.00 28.32    -0.393 OA
HETATM   43  H4  MK1 B 902       8.726  25.989   4.037  1.00  0.00     0.210 HD
ENDBRANCH  41  42
ENDBRANCH  30  33
ENDBRANCH  28  29
BRANCH  28  44
HETATM   44  C14 MK1 B 902      11.393  24.779   5.792  1.00 28.67     0.052 C 
BRANCH  44  45
HETATM   45  C15 MK1 B 902      11.080  25.141   7.197  1.00 26.89    -0.057 A 
HETATM   46  C16 MK1 B 902      12.038  25.653   8.074  1.00 29.22     0.007 A 
HETATM   47  C17 MK1 B 902      11.710  25.943   9.390  1.00 29.22     0.001 A 
HETATM   48  C18 MK1 B 902      10.402  25.711   9.823  1.00 30.97     0.000 A 
HETATM   49  C19 MK1 B 902       9.436  25.205   8.946  1.00 29.25     0.001 A 
HETATM   50  C20 MK1 B 902       9.782  24.919   7.625  1.00 29.96     0.007 A 
ENDBRANCH  44  45
ENDBRANCH  28  44
ENDBRANCH  27  28
ENDBRANCH  24  27
ENDBRANCH  23  24
ENDBRANCH   4  23
TORSDOF 14
ENDMDL
MODEL 4
REMARK VINA RESULT:     -10.1      2.237      4.300
REMARK  14 active torsions:
REMARK  status: ('A' for Active; 'I' for Inactive)
REMARK    1  A    between atoms: N1_1  and  C31_43 
REMARK    2  A    between atoms: C2_3  and  C3_4 
REMARK       I    between atoms: C3_4  and  N2_6 
REMARK    3  A    between atoms: N2_6  and  C4_8 
REMARK    4  A    between atoms: N3_12  and  C10_15 
REMARK    5  A    between atoms: C10_15  and  C11_16 
REMARK    6  A    between atoms: C11_16  and  O2_17 
REMARK    7  A    between atoms: C11_16  and  C12_19 
REMARK    8  A    between atoms: C12_19  and  C13_20 
REMARK    9  A    between atoms: C13_20  and  C21_28 
REMARK   10  A    between atoms: C13_20  and  C14_21 
REMARK   11  A    between atoms: C14_21  and  C15_22 
REMARK       I    between atoms: C21_28  and  N4_30 
REMARK   12  A    between atoms: N4_30  and  C22_32 
REMARK   13  A    between atoms: C23_33  and  O4_34 
REMARK   14  A    between atoms: C31_43  and  C32_44 
ROOT
HETATM    1  N1  MK1 B 902       5.967  24.891   2.659  1.00 28.25     0.096 N 
HETATM    2  C1  MK1 B 902       6.484  25.724   3.778  1.00 30.30     0.307 C 
HETATM    3  C2  MK1 B 902       7.836  26.404   3.694  1.00 27.27     0.200 C 
HETATM    4  N3  MK1 B 902       8.754  25.232   3.469  1.00 28.91    -0.395 N 
HETATM    5  C8  MK1 B 902       8.324  24.151   2.548  1.00 26.24     0.148 C 
HETATM    6  C9  MK1 B 902       6.846  23.821   2.496  1.00 27.47     0.292 C 
ENDROOT
BRANCH   1   7
HETATM    7  C31 MK1 B 902       4.547  24.519   2.699  1.00 36.25     0.312 C 
BRANCH   7   8
HETATM    8  C32 MK1 B 902       4.099  23.128   3.163  1.00 42.75    -0.015 A 
HETATM    9  C36 MK1 B 902       3.056  22.533   2.486  1.00 44.71     0.011 A 
HETATM   10  C35 MK1 B 902       2.631  21.278   2.915  1.00 49.34     0.018 A 
HETATM   11  C34 MK1 B 902       3.258  20.665   4.004  1.00 50.60     0.087 A 
HETATM   12  N5  MK1 B 902       4.315  21.196   4.742  1.00 51.38    -0.375 N 
HETATM   13  C33 MK1 B 902       4.684  22.458   4.247  1.00 47.41     0.096 A 
HETATM   14  H5  MK1 B 902       4.760  20.732   5.534  1.00  0.00     0.164 HD
ENDBRANCH   7   8
ENDBRANCH   1   7
BRANCH   3  15
HETATM   15  C3  MK1 B 902       8.092  27.111   4.997  1.00 28.85     0.242 C 
HETATM   16  O1  MK1 B 902       9.074  27.832   5.127  1.00 29.59    -0.271 OA
HETATM   17  N2  MK1 B 902       7.227  26.905   5.970  1.00 22.29    -0.351 N 
HETATM   18  H2  MK1 B 902       6.492  26.231   5.754  1.00  0.00     0.163 HD
BRANCH  17  19
HETATM   19  C4  MK1 B 902       7.153  27.473   7.278  1.00 23.47     0.022 C 
HETATM   20  C7  MK1 B 902       7.214  26.477   8.353  1.00 22.75     0.037 C 
HETATM   21  C5  MK1 B 902       5.756  28.106   7.415  1.00 27.66     0.037 C 
HETATM   22  C6  MK1 B 902       8.137  28.418   7.523  1.00 21.71     0.037 C 
ENDBRANCH  17  19
ENDBRANCH   3  15
BRANCH   4  23
HETATM   23  C10 MK1 B 902      10.158  25.514   3.246  1.00 20.86     0.149 C 
BRANCH  23  24
HETATM   24  C11 MK1 B 902      11.006  24.275   2.953  1.00 21.68     0.136 C 
BRANCH  24  25
HETATM   25  O2  MK1 B 902      12.230  24.943   3.013  1.00 15.87    -0.394 OA
HETATM   26  H2  MK1 B 902      12.054  25.872   3.111  1.00  0.00     0.210 HD
ENDBRANCH  24  25
BRANCH  24  27
HETATM   27  C12 MK1 B 902      11.089  23.046   3.876  1.00 21.49     0.047 C 
BRANCH  27  28
HETATM   28  C13 MK1 B 902      11.678  23.168   5.289  1.00 26.89     0.084 C 
BRANCH  28  29
HETATM   29  C21 MK1 B 902      12.381  21.889   5.729  1.00 29.35     0.222 C 
HETATM   30  N4  MK1 B 902      13.489  21.588   5.056  1.00 31.19    -0.350 N 
HETATM   31  H4  MK1 B 902      13.675  22.055   4.168  1.00  0.00     0.163 HD
HETATM   32  O3  MK1 B 902      11.987  21.262   6.722  1.00 32.66    -0.273 OA
BRANCH  30  33
HETATM   33  C22 MK1 B 902      14.439  20.608   5.554  1.00 29.22     0.147 C 
HETATM   34  C30 MK1 B 902      15.300  19.827   4.527  1.00 31.86    -0.027 A 
HETATM   35  C29 MK1 B 902      15.046  19.320   3.292  1.00 27.70     0.010 A 
HETATM   36  C25 MK1 B 902      16.743  19.601   5.063  1.00 31.29    -0.047 A 
HETATM   37  C28 MK1 B 902      16.021  18.651   2.564  1.00 29.01     0.001 A 
HETATM   38  C27 MK1 B 902      17.323  18.466   3.052  1.00 28.00     0.001 A 
HETATM   39  C26 MK1 B 902      17.691  18.944   4.315  1.00 32.00     0.008 A 
HETATM   40  C24 MK1 B 902      16.672  20.296   6.400  1.00 32.05     0.073 C 
HETATM   41  C23 MK1 B 902      15.492  21.240   6.449  1.00 28.82     0.149 C 
BRANCH  41  42
HETATM   42  O4  MK1 B 902      15.789  22.556   6.005  1.00 28.32    -0.393 OA
HETATM   43  H4  MK1 B 902      15.082  23.148   6.235  1.00  0.00     0.210 HD
ENDBRANCH  41  42
ENDBRANCH  30  33
ENDBRANCH  28  29
BRANCH  28  44
HETATM   44  C14 MK1 B 902      10.612  23.535   6.336  1.00 28.67     0.052 C 
BRANCH  44  45
HETATM   45  C15 MK1 B 902      11.125  24.473   7.365  1.00 26.89    -0.057 A 
HETATM   46  C16 MK1 B 902      12.464  24.867   7.423  1.00 29.22     0.007 A 
HETATM   47  C17 MK1 B 902      12.907  25.717   8.425  1.00 29.22     0.001 A 
HETATM   48  C18 MK1 B 902      11.992  26.170   9.377  1.00 30.97     0.000 A 
HETATM   49  C19 MK1 B 902      10.647  25.783   9.318  1.00 29.25     0.001 A 
HETATM   50  C20 MK1 B 902      10.216  24.929   8.304  1.00 29.96     0.007 A 
ENDBRANCH  44  45
ENDBRANCH  28  44
ENDBRANCH  27  28
ENDBRANCH  24  27
ENDBRANCH  23  24
ENDBRANCH   4  23
TORSDOF 14
ENDMDL
MODEL 5
REMARK VINA RESULT:     -10.0      2.203     10.850
REMARK  14 active torsions:
REMARK  status: ('A' for Active; 'I' for Inactive)
REMARK    1  A    between atoms: N1_1  and  C31_43 
REMARK    2  A    between atoms: C2_3  and  C3_4 
REMARK       I    between atoms: C3_4  and  N2_6 
REMARK    3  A    between atoms: N2_6  and  C4_8 
REMARK    4  A    between atoms: N3_12  and  C10_15 
REMARK    5  A    between atoms: C10_15  and  C11_16 
REMARK    6  A    between atoms: C11_16  and  O2_17 
REMARK    7  A    between atoms: C11_16  and  C12_19 
REMARK    8  A    between atoms: C12_19  and  C13_20 
REMARK    9  A    between atoms: C13_20  and  C21_28 
REMARK   10  A    between atoms: C13_20  and  C14_21 
REMARK   11  A    between atoms: C14_21  and  C15_22 
REMARK       I    between atoms: C21_28  and  N4_30 
REMARK   12  A    between atoms: N4_30  and  C22_32 
REMARK   13  A    between atoms: C23_33  and  O4_34 
REMARK   14  A    between atoms: C31_43  and  C32_44 
ROOT
HETATM    1  N1  MK1 B 902      14.118  22.328   7.403  1.00 28.25     0.096 N 
HETATM    2  C1  MK1 B 902      14.489  21.572   6.177  1.00 30.30     0.307 C 
HETATM    3  C2  MK1 B 902      14.214  22.127   4.794  1.00 27.27     0.200 C 
HETATM    4  N3  MK1 B 902      12.723  22.323   4.835  1.00 28.91    -0.395 N 
HETATM    5  C8  MK1 B 902      12.103  22.863   6.071  1.00 26.24     0.148 C 
HETATM    6  C9  MK1 B 902      12.731  22.477   7.395  1.00 27.47     0.292 C 
ENDROOT
BRANCH   1   7
HETATM    7  C31 MK1 B 902      14.678  21.861   8.676  1.00 36.25     0.312 C 
BRANCH   7   8
HETATM    8  C32 MK1 B 902      16.159  21.485   8.807  1.00 42.75    -0.015 A 
HETATM    9  C36 MK1 B 902      16.461  20.255   9.352  1.00 44.71     0.011 A 
HETATM   10  C35 MK1 B 902      17.804  19.916   9.492  1.00 49.34     0.018 A 
HETATM   11  C34 MK1 B 902      18.796  20.814   9.086  1.00 50.60     0.087 A 
HETATM   12  N5  MK1 B 902      18.577  22.073   8.528  1.00 51.38    -0.375 N 
HETATM   13  C33 MK1 B 902      17.202  22.338   8.420  1.00 47.41     0.096 A 
HETATM   14  H5  MK1 B 902      19.316  22.713   8.237  1.00  0.00     0.164 HD
ENDBRANCH   7   8
ENDBRANCH   1   7
BRANCH   3  15
HETATM   15  C3  MK1 B 902      14.647  21.106   3.777  1.00 28.85     0.242 C 
HETATM   16  O1  MK1 B 902      14.693  21.397   2.589  1.00 29.59    -0.271 OA
HETATM   17  N2  MK1 B 902      14.953  19.905   4.229  1.00 22.29    -0.351 N 
HETATM   18  H2  MK1 B 902      14.808  19.774   5.230  1.00  0.00     0.163 HD
BRANCH  17  19
HETATM   19  C4  MK1 B 902      15.455  18.759   3.541  1.00 23.47     0.022 C 
HETATM   20  C7  MK1 B 902      14.737  18.461   2.298  1.00 22.75     0.037 C 
HETATM   21  C5  MK1 B 902      15.187  17.541   4.444  1.00 27.66     0.037 C 
HETATM   22  C6  MK1 B 902      16.804  18.848   3.238  1.00 21.71     0.037 C 
ENDBRANCH  17  19
ENDBRANCH   3  15
BRANCH   4  23
HETATM   23  C10 MK1 B 902      12.096  22.941   3.683  1.00 20.86     0.149 C 
BRANCH  23  24
HETATM   24  C11 MK1 B 902      11.551  24.345   3.945  1.00 21.68     0.136 C 
BRANCH  24  25
HETATM   25  O2  MK1 B 902      12.483  24.996   3.134  1.00 15.87    -0.394 OA
HETATM   26  H2  MK1 B 902      12.172  25.881   2.981  1.00  0.00     0.210 HD
ENDBRANCH  24  25
BRANCH  24  27
HETATM   27  C12 MK1 B 902      10.146  24.819   3.530  1.00 21.49     0.047 C 
BRANCH  27  28
HETATM   28  C13 MK1 B 902       9.161  25.357   4.577  1.00 26.89     0.084 C 
BRANCH  28  29
HETATM   29  C21 MK1 B 902       7.845  25.802   3.951  1.00 29.35     0.222 C 
HETATM   30  N4  MK1 B 902       6.747  25.390   4.579  1.00 31.19    -0.350 N 
HETATM   31  H4  MK1 B 902       6.817  24.637   5.263  1.00  0.00     0.163 HD
HETATM   32  O3  MK1 B 902       7.836  26.588   2.992  1.00 32.66    -0.273 OA
BRANCH  30  33
HETATM   33  C22 MK1 B 902       5.449  25.988   4.314  1.00 29.22     0.147 C 
HETATM   34  C30 MK1 B 902       4.269  25.053   3.940  1.00 31.86    -0.027 A 
HETATM   35  C29 MK1 B 902       4.178  23.920   3.194  1.00 27.70     0.010 A 
HETATM   36  C25 MK1 B 902       2.938  25.553   4.570  1.00 31.29    -0.047 A 
HETATM   37  C28 MK1 B 902       2.970  23.259   3.018  1.00 29.01     0.001 A 
HETATM   38  C27 MK1 B 902       1.778  23.711   3.603  1.00 28.00     0.001 A 
HETATM   39  C26 MK1 B 902       1.758  24.870   4.387  1.00 32.00     0.008 A 
HETATM   40  C24 MK1 B 902       3.408  26.772   5.323  1.00 32.05     0.073 C 
HETATM   41  C23 MK1 B 902       4.906  26.730   5.523  1.00 28.82     0.149 C 
BRANCH  41  42
HETATM   42  O4  MK1 B 902       5.309  26.081   6.720  1.00 28.32    -0.393 OA
HETATM   43  H4  MK1 B 902       4.690  26.263   7.418  1.00  0.00     0.210 HD
ENDBRANCH  41  42
ENDBRANCH  30  33
ENDBRANCH  28  29
BRANCH  28  44
HETATM   44  C14 MK1 B 902       9.749  26.527   5.384  1.00 28.67     0.052 C 
BRANCH  44  45
HETATM   45  C15 MK1 B 902       9.832  26.231   6.836  1.00 26.89    -0.057 A 
HETATM   46  C16 MK1 B 902       8.705  26.181   7.659  1.00 29.22     0.007 A 
HETATM   47  C17 MK1 B 902       8.832  25.937   9.018  1.00 29.22     0.001 A 
HETATM   48  C18 MK1 B 902      10.109  25.745   9.550  1.00 30.97     0.000 A 
HETATM   49  C19 MK1 B 902      11.241  25.786   8.728  1.00 29.25     0.001 A 
HETATM   50  C20 MK1 B 902      11.097  26.032   7.362  1.00 29.96     0.007 A 
ENDBRANCH  44  45
ENDBRANCH  28  44
ENDBRANCH  27  28
ENDBRANCH  24  27
ENDBRANCH  23  24
ENDBRANCH   4  23
TORSDOF 14
ENDMDL
MODEL 6
REMARK VINA RESULT:      -9.9      1.801      3.632
REMARK  14 active torsions:
REMARK  status: ('A' for Active; 'I' for Inactive)
REMARK    1  A    between atoms: N1_1  and  C31_43 
REMARK    2  A    between atoms: C2_3  and  C3_4 
REMARK       I    between atoms: C3_4  and  N2_6 
REMARK    3  A    between atoms: N2_6  and  C4_8 
REMARK    4  A    between atoms: N3_12  and  C10_15 
REMARK    5  A    between atoms: C10_15  and  C11_16 
REMARK    6  A    between atoms: C11_16  and  O2_17 
REMARK    7  A    between atoms: C11_16  and  C12_19 
REMARK    8  A    between atoms: C12_19  and  C13_20 
REMARK    9  A    between atoms: C13_20  and  C21_28 
REMARK   10  A    between atoms: C13_20  and  C14_21 
REMARK   11  A    between atoms: C14_21  and  C15_22 
REMARK       I    between atoms: C21_28  and  N4_30 
REMARK   12  A    between atoms: N4_30  and  C22_32 
REMARK   13  A    between atoms: C23_33  and  O4_34 
REMARK   14  A    between atoms: C31_43  and  C32_44 
ROOT
HETATM    1  N1  MK1 B 902       8.463  27.086   7.146  1.00 28.25     0.096 N 
HETATM    2  C1  MK1 B 902       9.272  26.405   6.100  1.00 30.30     0.307 C 
HETATM    3  C2  MK1 B 902      10.015  25.116   6.392  1.00 27.27     0.200 C 
HETATM    4  N3  MK1 B 902      10.908  25.531   7.530  1.00 28.91    -0.395 N 
HETATM    5  C8  MK1 B 902      10.358  26.416   8.588  1.00 26.24     0.148 C 
HETATM    6  C9  MK1 B 902       9.335  27.452   8.171  1.00 27.47     0.292 C 
ENDROOT
BRANCH   1   7
HETATM    7  C31 MK1 B 902       7.552  28.149   6.706  1.00 36.25     0.312 C 
BRANCH   7   8
HETATM    8  C32 MK1 B 902       6.061  27.875   6.471  1.00 42.75    -0.015 A 
HETATM    9  C36 MK1 B 902       5.214  27.976   7.554  1.00 44.71     0.011 A 
HETATM   10  C35 MK1 B 902       3.862  27.710   7.351  1.00 49.34     0.018 A 
HETATM   11  C34 MK1 B 902       3.406  27.350   6.079  1.00 50.60     0.087 A 
HETATM   12  N5  MK1 B 902       4.193  27.225   4.935  1.00 51.38    -0.375 N 
HETATM   13  C33 MK1 B 902       5.538  27.510   5.222  1.00 47.41     0.096 A 
HETATM   14  H5  MK1 B 902       3.840  26.962   4.015  1.00  0.00     0.164 HD
ENDBRANCH   7   8
ENDBRANCH   1   7
BRANCH   3  15
HETATM   15  C3  MK1 B 902      10.779  24.720   5.157  1.00 28.85     0.242 C 
HETATM   16  O1  MK1 B 902      11.737  25.384   4.783  1.00 29.59    -0.271 OA
HETATM   17  N2  MK1 B 902      10.358  23.650   4.512  1.00 22.29    -0.351 N 
HETATM   18  H2  MK1 B 902       9.510  23.227   4.890  1.00  0.00     0.163 HD
BRANCH  17  19
HETATM   19  C4  MK1 B 902      10.899  22.988   3.368  1.00 23.47     0.022 C 
HETATM   20  C7  MK1 B 902      11.068  23.867   2.207  1.00 22.75     0.037 C 
HETATM   21  C5  MK1 B 902       9.858  21.947   2.917  1.00 27.66     0.037 C 
HETATM   22  C6  MK1 B 902      12.118  22.376   3.614  1.00 21.71     0.037 C 
ENDBRANCH  17  19
ENDBRANCH   3  15
BRANCH   4  23
HETATM   23  C10 MK1 B 902      11.725  24.506   8.148  1.00 20.86     0.149 C 
BRANCH  23  24
HETATM   24  C11 MK1 B 902      13.170  24.470   7.647  1.00 21.68     0.136 C 
BRANCH  24  25
HETATM   25  O2  MK1 B 902      13.502  25.738   8.130  1.00 15.87    -0.394 OA
HETATM   26  H2  MK1 B 902      13.266  25.772   9.050  1.00  0.00     0.210 HD
ENDBRANCH  24  25
BRANCH  24  27
HETATM   27  C12 MK1 B 902      14.234  23.477   8.147  1.00 21.49     0.047 C 
BRANCH  27  28
HETATM   28  C13 MK1 B 902      15.451  23.131   7.277  1.00 26.89     0.084 C 
BRANCH  28  29
HETATM   29  C21 MK1 B 902      15.291  21.787   6.576  1.00 29.35     0.222 C 
HETATM   30  N4  MK1 B 902      16.402  21.289   6.040  1.00 31.19    -0.350 N 
HETATM   31  H4  MK1 B 902      17.209  21.898   5.909  1.00  0.00     0.163 HD
HETATM   32  O3  MK1 B 902      14.213  21.176   6.622  1.00 32.66    -0.273 OA
BRANCH  30  33
HETATM   33  C22 MK1 B 902      16.493  19.896   5.637  1.00 29.22     0.147 C 
HETATM   34  C30 MK1 B 902      16.164  19.531   4.165  1.00 31.86    -0.027 A 
HETATM   35  C29 MK1 B 902      15.243  19.987   3.276  1.00 27.70     0.010 A 
HETATM   36  C25 MK1 B 902      17.106  18.410   3.642  1.00 31.29    -0.047 A 
HETATM   37  C28 MK1 B 902      15.162  19.481   1.986  1.00 29.01     0.001 A 
HETATM   38  C27 MK1 B 902      16.027  18.479   1.521  1.00 28.00     0.001 A 
HETATM   39  C26 MK1 B 902      17.010  17.935   2.355  1.00 32.00     0.008 A 
HETATM   40  C24 MK1 B 902      17.983  18.176   4.847  1.00 32.05     0.073 C 
HETATM   41  C23 MK1 B 902      17.900  19.346   5.801  1.00 28.82     0.149 C 
BRANCH  41  42
HETATM   42  O4  MK1 B 902      18.858  20.363   5.550  1.00 28.32    -0.393 OA
HETATM   43  H4  MK1 B 902      19.200  20.283   4.667  1.00  0.00     0.210 HD
ENDBRANCH  41  42
ENDBRANCH  30  33
ENDBRANCH  28  29
BRANCH  28  44
HETATM   44  C14 MK1 B 902      16.760  23.118   8.085  1.00 28.67     0.052 C 
BRANCH  44  45
HETATM   45  C15 MK1 B 902      16.932  21.869   8.868  1.00 26.89    -0.057 A 
HETATM   46  C16 MK1 B 902      15.894  21.292   9.602  1.00 29.22     0.007 A 
HETATM   47  C17 MK1 B 902      16.110  20.143  10.349  1.00 29.22     0.001 A 
HETATM   48  C18 MK1 B 902      17.386  19.575  10.355  1.00 30.97     0.000 A 
HETATM   49  C19 MK1 B 902      18.428  20.146   9.615  1.00 29.25     0.001 A 
HETATM   50  C20 MK1 B 902      18.195  21.301   8.868  1.00 29.96     0.007 A 
ENDBRANCH  44  45
ENDBRANCH  28  44
ENDBRANCH  27  28
ENDBRANCH  24  27
ENDBRANCH  23  24
ENDBRANCH   4  23
TORSDOF 14
ENDMDL
MODEL 7
REMARK VINA RESULT:      -9.9      2.717      5.728
REMARK  14 active torsions:
REMARK  status: ('A' for Active; 'I' for Inactive)
REMARK    1  A    between atoms: N1_1  and  C31_43 
REMARK    2  A    between atoms: C2_3  and  C3_4 
REMARK       I    between atoms: C3_4  and  N2_6 
REMARK    3  A    between atoms: N2_6  and  C4_8 
REMARK    4  A    between atoms: N3_12  and  C10_15 
REMARK    5  A    between atoms: C10_15  and  C11_16 
REMARK    6  A    between atoms: C11_16  and  O2_17 
REMARK    7  A    between atoms: C11_16  and  C12_19 
REMARK    8  A    between atoms: C12_19  and  C13_20 
REMARK    9  A    between atoms: C13_20  and  C21_28 
REMARK   10  A    between atoms: C13_20  and  C14_21 
REMARK   11  A    between atoms: C14_21  and  C15_22 
REMARK       I    between atoms: C21_28  and  N4_30 
REMARK   12  A    between atoms: N4_30  and  C22_32 
REMARK   13  A    between atoms: C23_33  and  O4_34 
REMARK   14  A    between atoms: C31_43  and  C32_44 
ROOT
HETATM    1  N1  MK1 B 902       7.467  27.027   5.869  1.00 28.25     0.096 N 
HETATM    2  C1  MK1 B 902       6.799  26.679   4.586  1.00 30.30     0.307 C 
HETATM    3  C2  MK1 B 902       7.183  25.434   3.810  1.00 27.27     0.200 C 
HETATM    4  N3  MK1 B 902       8.650  25.665   3.570  1.00 28.91    -0.395 N 
HETATM    5  C8  MK1 B 902       9.477  26.233   4.665  1.00 26.24     0.148 C 
HETATM    6  C9  MK1 B 902       8.818  27.234   5.591  1.00 27.47     0.292 C 
ENDROOT
BRANCH   1   7
HETATM    7  C31 MK1 B 902       6.842  28.070   6.691  1.00 36.25     0.312 C 
BRANCH   7   8
HETATM    8  C32 MK1 B 902       5.317  28.198   6.793  1.00 42.75    -0.015 A 
HETATM    9  C36 MK1 B 902       4.630  27.178   7.415  1.00 44.71     0.011 A 
HETATM   10  C35 MK1 B 902       3.243  27.279   7.494  1.00 49.34     0.018 A 
HETATM   11  C34 MK1 B 902       2.594  28.391   6.948  1.00 50.60     0.087 A 
HETATM   12  N5  MK1 B 902       3.211  29.462   6.305  1.00 51.38    -0.375 N 
HETATM   13  C33 MK1 B 902       4.604  29.285   6.268  1.00 47.41     0.096 A 
HETATM   14  H5  MK1 B 902       2.719  30.266   5.914  1.00  0.00     0.164 HD
ENDBRANCH   7   8
ENDBRANCH   1   7
BRANCH   3  15
HETATM   15  C3  MK1 B 902       6.376  25.400   2.541  1.00 28.85     0.242 C 
HETATM   16  O1  MK1 B 902       6.875  25.756   1.481  1.00 29.59    -0.271 OA
HETATM   17  N2  MK1 B 902       5.127  24.988   2.637  1.00 22.29    -0.351 N 
HETATM   18  H2  MK1 B 902       4.815  24.785   3.587  1.00  0.00     0.163 HD
BRANCH  17  19
HETATM   19  C4  MK1 B 902       4.142  24.779   1.624  1.00 23.47     0.022 C 
HETATM   20  C7  MK1 B 902       3.407  25.996   1.263  1.00 22.75     0.037 C 
HETATM   21  C5  MK1 B 902       3.074  23.845   2.222  1.00 27.66     0.037 C 
HETATM   22  C6  MK1 B 902       4.659  24.237   0.458  1.00 21.71     0.037 C 
ENDBRANCH  17  19
ENDBRANCH   3  15
BRANCH   4  23
HETATM   23  C10 MK1 B 902       9.396  24.609   2.913  1.00 20.86     0.149 C 
BRANCH  23  24
HETATM   24  C11 MK1 B 902       9.855  23.491   3.850  1.00 21.68     0.136 C 
BRANCH  24  25
HETATM   25  O2  MK1 B 902       9.302  22.457   3.093  1.00 15.87    -0.394 OA
HETATM   26  H2  MK1 B 902       9.046  22.814   2.251  1.00  0.00     0.210 HD
ENDBRANCH  24  25
BRANCH  24  27
HETATM   27  C12 MK1 B 902      11.330  23.144   4.124  1.00 21.49     0.047 C 
BRANCH  27  28
HETATM   28  C13 MK1 B 902      11.857  23.052   5.564  1.00 26.89     0.084 C 
BRANCH  28  29
HETATM   29  C21 MK1 B 902      12.538  21.717   5.840  1.00 29.35     0.222 C 
HETATM   30  N4  MK1 B 902      13.605  21.455   5.090  1.00 31.19    -0.350 N 
HETATM   31  H4  MK1 B 902      13.768  22.005   4.246  1.00  0.00     0.163 HD
HETATM   32  O3  MK1 B 902      12.166  21.002   6.783  1.00 32.66    -0.273 OA
BRANCH  30  33
HETATM   33  C22 MK1 B 902      14.544  20.405   5.443  1.00 29.22     0.147 C 
HETATM   34  C30 MK1 B 902      15.340  19.713   4.305  1.00 31.86    -0.027 A 
HETATM   35  C29 MK1 B 902      15.021  19.345   3.036  1.00 27.70     0.010 A 
HETATM   36  C25 MK1 B 902      16.795  19.395   4.752  1.00 31.29    -0.047 A 
HETATM   37  C28 MK1 B 902      15.945  18.730   2.201  1.00 29.01     0.001 A 
HETATM   38  C27 MK1 B 902      17.259  18.461   2.611  1.00 28.00     0.001 A 
HETATM   39  C26 MK1 B 902      17.692  18.795   3.899  1.00 32.00     0.008 A 
HETATM   40  C24 MK1 B 902      16.799  19.948   6.156  1.00 32.05     0.073 C 
HETATM   41  C23 MK1 B 902      15.651  20.912   6.352  1.00 28.82     0.149 C 
BRANCH  41  42
HETATM   42  O4  MK1 B 902      15.970  22.259   6.034  1.00 28.32    -0.393 OA
HETATM   43  H4  MK1 B 902      16.642  22.289   5.363  1.00  0.00     0.210 HD
ENDBRANCH  41  42
ENDBRANCH  30  33
ENDBRANCH  28  29
BRANCH  28  44
HETATM   44  C14 MK1 B 902      10.746  23.269   6.606  1.00 28.67     0.052 C 
BRANCH  44  45
HETATM   45  C15 MK1 B 902      11.065  24.363   7.557  1.00 26.89    -0.057 A 
HETATM   46  C16 MK1 B 902      10.087  25.016   8.309  1.00 29.22     0.007 A 
HETATM   47  C17 MK1 B 902      10.426  26.058   9.159  1.00 29.22     0.001 A 
HETATM   48  C18 MK1 B 902      11.766  26.444   9.247  1.00 30.97     0.000 A 
HETATM   49  C19 MK1 B 902      12.751  25.787   8.500  1.00 29.25     0.001 A 
HETATM   50  C20 MK1 B 902      12.394  24.740   7.651  1.00 29.96     0.007 A 
ENDBRANCH  44  45
ENDBRANCH  28  44
ENDBRANCH  27  28
ENDBRANCH  24  27
ENDBRANCH  23  24
ENDBRANCH   4  23
TORSDOF 14
ENDMDL
MODEL 8
REMARK VINA RESULT:      -9.8      1.462      3.657
REMARK  14 active torsions:
REMARK  status: ('A' for Active; 'I' for Inactive)
REMARK    1  A    between atoms: N1_1  and  C31_43 
REMARK    2  A    between atoms: C2_3  and  C3_4 
REMARK       I    between atoms: C3_4  and  N2_6 
REMARK    3  A    between atoms: N2_6  and  C4_8 
REMARK    4  A    between atoms: N3_12  and  C10_15 
REMARK    5  A    between atoms: C10_15  and  C11_16 
REMARK    6  A    between atoms: C11_16  and  O2_17 
REMARK    7  A    between atoms: C11_16  and  C12_19 
REMARK    8  A    between atoms: C12_19  and  C13_20 
REMARK    9  A    between atoms: C13_20  and  C21_28 
REMARK   10  A    between atoms: C13_20  and  C14_21 
REMARK   11  A    between atoms: C14_21  and  C15_22 
REMARK       I    between atoms: C21_28  and  N4_30 
REMARK   12  A    between atoms: N4_30  and  C22_32 
REMARK   13  A    between atoms: C23_33  and  O4_34 
REMARK   14  A    between atoms: C31_43  and  C32_44 
ROOT
HETATM    1  N1  MK1 B 902      10.549  24.793   7.755  1.00 28.25     0.096 N 
HETATM    2  C1  MK1 B 902      10.129  24.618   6.338  1.00 30.30     0.307 C 
HETATM    3  C2  MK1 B 902      11.096  24.112   5.286  1.00 27.27     0.200 C 
HETATM    4  N3  MK1 B 902      12.196  25.135   5.365  1.00 28.91    -0.395 N 
HETATM    5  C8  MK1 B 902      12.623  25.629   6.698  1.00 26.24     0.148 C 
HETATM    6  C9  MK1 B 902      11.562  25.750   7.773  1.00 27.47     0.292 C 
ENDROOT
BRANCH   1   7
HETATM    7  C31 MK1 B 902       9.489  25.000   8.749  1.00 36.25     0.312 C 
BRANCH   7   8
HETATM    8  C32 MK1 B 902       8.551  26.211   8.676  1.00 42.75    -0.015 A 
HETATM    9  C36 MK1 B 902       7.462  26.126   7.835  1.00 44.71     0.011 A 
HETATM   10  C35 MK1 B 902       6.618  27.230   7.749  1.00 49.34     0.018 A 
HETATM   11  C34 MK1 B 902       6.891  28.377   8.501  1.00 50.60     0.087 A 
HETATM   12  N5  MK1 B 902       7.967  28.544   9.372  1.00 51.38    -0.375 N 
HETATM   13  C33 MK1 B 902       8.767  27.391   9.402  1.00 47.41     0.096 A 
HETATM   14  H5  MK1 B 902       8.148  29.390   9.913  1.00  0.00     0.164 HD
ENDBRANCH   7   8
ENDBRANCH   1   7
BRANCH   3  15
HETATM   15  C3  MK1 B 902      10.390  24.107   3.957  1.00 28.85     0.242 C 
HETATM   16  O1  MK1 B 902      10.824  23.437   3.029  1.00 29.59    -0.271 OA
HETATM   17  N2  MK1 B 902       9.311  24.857   3.850  1.00 22.29    -0.351 N 
HETATM   18  H2  MK1 B 902       9.095  25.418   4.675  1.00  0.00     0.163 HD
BRANCH  17  19
HETATM   19  C4  MK1 B 902       8.397  25.012   2.764  1.00 23.47     0.022 C 
HETATM   20  C7  MK1 B 902       7.125  25.631   3.153  1.00 22.75     0.037 C 
HETATM   21  C5  MK1 B 902       8.011  23.597   2.296  1.00 27.66     0.037 C 
HETATM   22  C6  MK1 B 902       8.917  25.745   1.709  1.00 21.71     0.037 C 
ENDBRANCH  17  19
ENDBRANCH   3  15
BRANCH   4  23
HETATM   23  C10 MK1 B 902      13.369  24.923   4.541  1.00 20.86     0.149 C 
BRANCH  23  24
HETATM   24  C11 MK1 B 902      14.347  23.887   5.098  1.00 21.68     0.136 C 
BRANCH  24  25
HETATM   25  O2  MK1 B 902      15.496  24.600   4.752  1.00 15.87    -0.394 OA
HETATM   26  H2  MK1 B 902      15.294  25.526   4.802  1.00  0.00     0.210 HD
ENDBRANCH  24  25
BRANCH  24  27
HETATM   27  C12 MK1 B 902      14.451  23.511   6.588  1.00 21.49     0.047 C 
BRANCH  27  28
HETATM   28  C13 MK1 B 902      15.590  22.612   7.089  1.00 26.89     0.084 C 
BRANCH  28  29
HETATM   29  C21 MK1 B 902      15.573  21.241   6.424  1.00 29.35     0.222 C 
HETATM   30  N4  MK1 B 902      16.741  20.829   5.939  1.00 31.19    -0.350 N 
HETATM   31  H4  MK1 B 902      17.496  21.504   5.816  1.00  0.00     0.163 HD
HETATM   32  O3  MK1 B 902      14.552  20.538   6.454  1.00 32.66    -0.273 OA
BRANCH  30  33
HETATM   33  C22 MK1 B 902      16.968  19.439   5.580  1.00 29.22     0.147 C 
HETATM   34  C30 MK1 B 902      16.694  19.000   4.118  1.00 31.86    -0.027 A 
HETATM   35  C29 MK1 B 902      15.747  19.341   3.205  1.00 27.70     0.010 A 
HETATM   36  C25 MK1 B 902      17.744  17.957   3.640  1.00 31.29    -0.047 A 
HETATM   37  C28 MK1 B 902      15.731  18.790   1.930  1.00 29.01     0.001 A 
HETATM   38  C27 MK1 B 902      16.692  17.861   1.506  1.00 28.00     0.001 A 
HETATM   39  C26 MK1 B 902      17.710  17.437   2.368  1.00 32.00     0.008 A 
HETATM   40  C24 MK1 B 902      18.623  17.845   4.861  1.00 32.05     0.073 C 
HETATM   41  C23 MK1 B 902      18.418  19.029   5.777  1.00 28.82     0.149 C 
BRANCH  41  42
HETATM   42  O4  MK1 B 902      19.280  20.124   5.504  1.00 28.32    -0.393 OA
HETATM   43  H4  MK1 B 902      19.215  20.374   4.589  1.00  0.00     0.210 HD
ENDBRANCH  41  42
ENDBRANCH  30  33
ENDBRANCH  28  29
BRANCH  28  44
HETATM   44  C14 MK1 B 902      15.556  22.425   8.616  1.00 28.67     0.052 C 
BRANCH  44  45
HETATM   45  C15 MK1 B 902      16.655  21.556   9.106  1.00 26.89    -0.057 A 
HETATM   46  C16 MK1 B 902      18.002  21.843   8.874  1.00 29.22     0.007 A 
HETATM   47  C17 MK1 B 902      18.995  20.983   9.320  1.00 29.22     0.001 A 
HETATM   48  C18 MK1 B 902      18.623  19.823  10.003  1.00 30.97     0.000 A 
HETATM   49  C19 MK1 B 902      17.275  19.535  10.244  1.00 29.25     0.001 A 
HETATM   50  C20 MK1 B 902      16.288  20.410   9.791  1.00 29.96     0.007 A 
ENDBRANCH  44  45
ENDBRANCH  28  44
ENDBRANCH  27  28
ENDBRANCH  24  27
ENDBRANCH  23  24
ENDBRANCH   4  23
TORSDOF 14
ENDMDL
MODEL 9
REMARK VINA RESULT:      -9.8      2.363      5.527
REMARK  14 active torsions:
REMARK  status: ('A' for Active; 'I' for Inactive)
REMARK    1  A    between atoms: N1_1  and  C31_43 
REMARK    2  A    between atoms: C2_3  and  C3_4 
REMARK       I    between atoms: C3_4  and  N2_6 
REMARK    3  A    between atoms: N2_6  and  C4_8 
REMARK    4  A    between atoms: N3_12  and  C10_15 
REMARK    5  A    between atoms: C10_15  and  C11_16 
REMARK    6  A    between atoms: C11_16  and  O2_17 
REMARK    7  A    between atoms: C11_16  and  C12_19 
REMARK    8  A    between atoms: C12_19  and  C13_20 
REMARK    9  A    between atoms: C13_20  and  C21_28 
REMARK   10  A    between atoms: C13_20  and  C14_21 
REMARK   11  A    between atoms: C14_21  and  C15_22 
REMARK       I    between atoms: C21_28  and  N4_30 
REMARK   12  A    between atoms: N4_30  and  C22_32 
REMARK   13  A    between atoms: C23_33  and  O4_34 
REMARK   14  A    between atoms: C31_43  and  C32_44 
ROOT
HETATM    1  N1  MK1 B 902      12.303  24.080   4.207  1.00 28.25     0.096 N 
HETATM    2  C1  MK1 B 902      11.858  24.729   5.469  1.00 30.30     0.307 C 
HETATM    3  C2  MK1 B 902      12.827  24.990   6.606  1.00 27.27     0.200 C 
HETATM    4  N3  MK1 B 902      13.333  23.604   6.900  1.00 28.91    -0.395 N 
HETATM    5  C8  MK1 B 902      13.628  22.692   5.767  1.00 26.24     0.148 C 
HETATM    6  C9  MK1 B 902      12.756  22.802   4.533  1.00 27.47     0.292 C 
ENDROOT
BRANCH   1   7
HETATM    7  C31 MK1 B 902      11.384  24.133   3.064  1.00 36.25     0.312 C 
BRANCH   7   8
HETATM    8  C32 MK1 B 902       9.864  24.164   3.262  1.00 42.75    -0.015 A 
HETATM    9  C36 MK1 B 902       9.199  25.326   2.933  1.00 44.71     0.011 A 
HETATM   10  C35 MK1 B 902       7.821  25.367   3.130  1.00 49.34     0.018 A 
HETATM   11  C34 MK1 B 902       7.158  24.251   3.649  1.00 50.60     0.087 A 
HETATM   12  N5  MK1 B 902       7.752  23.042   4.006  1.00 51.38    -0.375 N 
HETATM   13  C33 MK1 B 902       9.138  23.081   3.777  1.00 47.41     0.096 A 
HETATM   14  H5  MK1 B 902       7.250  22.238   4.382  1.00  0.00     0.164 HD
ENDBRANCH   7   8
ENDBRANCH   1   7
BRANCH   3  15
HETATM   15  C3  MK1 B 902      12.061  25.595   7.751  1.00 28.85     0.242 C 
HETATM   16  O1  MK1 B 902      12.643  25.928   8.776  1.00 29.59    -0.271 OA
HETATM   17  N2  MK1 B 902      10.759  25.728   7.596  1.00 22.29    -0.351 N 
HETATM   18  H2  MK1 B 902      10.390  25.349   6.724  1.00  0.00     0.163 HD
BRANCH  17  19
HETATM   19  C4  MK1 B 902       9.781  26.317   8.454  1.00 23.47     0.022 C 
HETATM   20  C7  MK1 B 902       8.449  26.408   7.849  1.00 22.75     0.037 C 
HETATM   21  C5  MK1 B 902      10.204  27.780   8.679  1.00 27.66     0.037 C 
HETATM   22  C6  MK1 B 902       9.649  25.661   9.668  1.00 21.71     0.037 C 
ENDBRANCH  17  19
ENDBRANCH   3  15
BRANCH   4  23
HETATM   23  C10 MK1 B 902      14.373  23.469   7.900  1.00 20.86     0.149 C 
BRANCH  23  24
HETATM   24  C11 MK1 B 902      15.593  22.676   7.431  1.00 21.68     0.136 C 
BRANCH  24  25
HETATM   25  O2  MK1 B 902      16.441  23.783   7.353  1.00 15.87    -0.394 OA
HETATM   26  H2  MK1 B 902      17.335  23.466   7.306  1.00  0.00     0.210 HD
ENDBRANCH  24  25
BRANCH  24  27
HETATM   27  C12 MK1 B 902      16.298  21.596   8.272  1.00 21.49     0.047 C 
BRANCH  27  28
HETATM   28  C13 MK1 B 902      16.739  20.271   7.632  1.00 26.89     0.084 C 
BRANCH  28  29
HETATM   29  C21 MK1 B 902      17.785  19.549   8.472  1.00 29.35     0.222 C 
HETATM   30  N4  MK1 B 902      17.316  18.917   9.545  1.00 31.19    -0.350 N 
HETATM   31  H4  MK1 B 902      16.378  19.133   9.880  1.00  0.00     0.163 HD
HETATM   32  O3  MK1 B 902      18.963  19.478   8.091  1.00 32.66    -0.273 OA
BRANCH  30  33
HETATM   33  C22 MK1 B 902      18.110  17.926  10.252  1.00 29.22     0.147 C 
HETATM   34  C30 MK1 B 902      18.837  18.355  11.554  1.00 31.86    -0.027 A 
HETATM   35  C29 MK1 B 902      19.467  19.496  11.937  1.00 27.70     0.010 A 
HETATM   36  C25 MK1 B 902      18.813  17.213  12.609  1.00 31.29    -0.047 A 
HETATM   37  C28 MK1 B 902      20.044  19.624  13.193  1.00 29.01     0.001 A 
HETATM   38  C27 MK1 B 902      20.004  18.592  14.142  1.00 28.00     0.001 A 
HETATM   39  C26 MK1 B 902      19.384  17.372  13.850  1.00 32.00     0.008 A 
HETATM   40  C24 MK1 B 902      18.036  16.149  11.875  1.00 32.05     0.073 C 
HETATM   41  C23 MK1 B 902      17.269  16.751  10.720  1.00 28.82     0.149 C 
BRANCH  41  42
HETATM   42  O4  MK1 B 902      15.962  17.187  11.062  1.00 28.32    -0.393 OA
HETATM   43  H4  MK1 B 902      15.421  17.249  10.283  1.00  0.00     0.210 HD
ENDBRANCH  41  42
ENDBRANCH  30  33
ENDBRANCH  28  29
BRANCH  28  44
HETATM   44  C14 MK1 B 902      17.293  20.467   6.209  1.00 28.67     0.052 C 
BRANCH  44  45
HETATM   45  C15 MK1 B 902      16.581  19.638   5.204  1.00 26.89    -0.057 A 
HETATM   46  C16 MK1 B 902      16.764  18.258   5.102  1.00 29.22     0.007 A 
HETATM   47  C17 MK1 B 902      16.106  17.528   4.123  1.00 29.22     0.001 A 
HETATM   48  C18 MK1 B 902      15.259  18.199   3.240  1.00 30.97     0.000 A 
HETATM   49  C19 MK1 B 902      15.067  19.582   3.343  1.00 29.25     0.001 A 
HETATM   50  C20 MK1 B 902      15.735  20.302   4.333  1.00 29.96     0.007 A 
ENDBRANCH  44  45
ENDBRANCH  28  44
ENDBRANCH  27  28
ENDBRANCH  24  27
ENDBRANCH  23  24
ENDBRANCH   4  23
TORSDOF 14
ENDMDL
MODEL 10
REMARK VINA RESULT:      -9.5      2.114     10.706
REMARK  14 active torsions:
REMARK  status: ('A' for Active; 'I' for Inactive)
REMARK    1  A    between atoms: N1_1  and  C31_43 
REMARK    2  A    between atoms: C2_3  and  C3_4 
REMARK       I    between atoms: C3_4  and  N2_6 
REMARK    3  A    between atoms: N2_6  and  C4_8 
REMARK    4  A    between atoms: N3_12  and  C10_15 
REMARK    5  A    between atoms: C10_15  and  C11_16 
REMARK    6  A    between atoms: C11_16  and  O2_17 
REMARK    7  A    between atoms: C11_16  and  C12_19 
REMARK    8  A    between atoms: C12_19  and  C13_20 
REMARK    9  A    between atoms: C13_20  and  C21_28 
REMARK   10  A    between atoms: C13_20  and  C14_21 
REMARK   11  A    between atoms: C14_21  and  C15_22 
REMARK       I    between atoms: C21_28  and  N4_30 
REMARK   12  A    between atoms: N4_30  and  C22_32 
REMARK   13  A    between atoms: C23_33  and  O4_34 
REMARK   14  A    between atoms: C31_43  and  C32_44 
ROOT
HETATM    1  N1  MK1 B 902      15.444  22.170   8.481  1.00 28.25     0.096 N 
HETATM    2  C1  MK1 B 902      15.162  21.450   7.210  1.00 30.30     0.307 C 
HETATM    3  C2  MK1 B 902      15.191  22.167   5.875  1.00 27.27     0.200 C 
HETATM    4  N3  MK1 B 902      14.162  23.245   6.085  1.00 28.91    -0.395 N 
HETATM    5  C8  MK1 B 902      14.117  23.949   7.391  1.00 26.24     0.148 C 
HETATM    6  C9  MK1 B 902      14.463  23.150   8.630  1.00 27.47     0.292 C 
ENDROOT
BRANCH   1   7
HETATM    7  C31 MK1 B 902      15.683  21.353   9.677  1.00 36.25     0.312 C 
BRANCH   7   8
HETATM    8  C32 MK1 B 902      16.682  20.191   9.664  1.00 42.75    -0.015 A 
HETATM    9  C36 MK1 B 902      17.786  20.306   8.846  1.00 44.71     0.011 A 
HETATM   10  C35 MK1 B 902      18.687  19.245   8.814  1.00 49.34     0.018 A 
HETATM   11  C34 MK1 B 902      18.454  18.109   9.595  1.00 50.60     0.087 A 
HETATM   12  N5  MK1 B 902      17.368  17.912  10.446  1.00 51.38    -0.375 N 
HETATM   13  C33 MK1 B 902      16.509  19.024  10.422  1.00 47.41     0.096 A 
HETATM   14  H5  MK1 B 902      17.216  17.075  11.008  1.00  0.00     0.164 HD
ENDBRANCH   7   8
ENDBRANCH   1   7
BRANCH   3  15
HETATM   15  C3  MK1 B 902      14.806  21.185   4.802  1.00 28.85     0.242 C 
HETATM   16  O1  MK1 B 902      13.705  21.250   4.270  1.00 29.59    -0.271 OA
HETATM   17  N2  MK1 B 902      15.696  20.265   4.486  1.00 22.29    -0.351 N 
HETATM   18  H2  MK1 B 902      16.546  20.279   5.050  1.00  0.00     0.163 HD
BRANCH  17  19
HETATM   19  C4  MK1 B 902      15.662  19.252   3.480  1.00 23.47     0.022 C 
HETATM   20  C7  MK1 B 902      15.014  18.012   3.919  1.00 22.75     0.037 C 
HETATM   21  C5  MK1 B 902      17.121  18.848   3.199  1.00 27.66     0.037 C 
HETATM   22  C6  MK1 B 902      15.041  19.661   2.310  1.00 21.71     0.037 C 
ENDBRANCH  17  19
ENDBRANCH   3  15
BRANCH   4  23
HETATM   23  C10 MK1 B 902      13.975  24.209   5.020  1.00 20.86     0.149 C 
BRANCH  23  24
HETATM   24  C11 MK1 B 902      12.547  24.742   4.901  1.00 21.68     0.136 C 
BRANCH  24  25
HETATM   25  O2  MK1 B 902      12.552  24.808   3.506  1.00 15.87    -0.394 OA
HETATM   26  H2  MK1 B 902      12.263  23.968   3.171  1.00  0.00     0.210 HD
ENDBRANCH  24  25
BRANCH  24  27
HETATM   27  C12 MK1 B 902      11.293  23.960   5.335  1.00 21.49     0.047 C 
BRANCH  27  28
HETATM   28  C13 MK1 B 902       9.900  24.595   5.227  1.00 26.89     0.084 C 
BRANCH  28  29
HETATM   29  C21 MK1 B 902       9.112  24.050   4.042  1.00 29.35     0.222 C 
HETATM   30  N4  MK1 B 902       7.789  24.080   4.174  1.00 31.19    -0.350 N 
HETATM   31  H4  MK1 B 902       7.384  24.224   5.099  1.00  0.00     0.163 HD
HETATM   32  O3  MK1 B 902       9.693  23.718   2.997  1.00 32.66    -0.273 OA
BRANCH  30  33
HETATM   33  C22 MK1 B 902       6.906  23.913   3.033  1.00 29.22     0.147 C 
HETATM   34  C30 MK1 B 902       5.459  23.412   3.286  1.00 31.86    -0.027 A 
HETATM   35  C29 MK1 B 902       4.924  22.509   4.148  1.00 27.70     0.010 A 
HETATM   36  C25 MK1 B 902       4.449  24.117   2.336  1.00 31.29    -0.047 A 
HETATM   37  C28 MK1 B 902       3.561  22.245   4.174  1.00 29.01     0.001 A 
HETATM   38  C27 MK1 B 902       2.658  22.897   3.322  1.00 28.00     0.001 A 
HETATM   39  C26 MK1 B 902       3.103  23.842   2.392  1.00 32.00     0.008 A 
HETATM   40  C24 MK1 B 902       5.362  25.039   1.566  1.00 32.05     0.073 C 
HETATM   41  C23 MK1 B 902       6.673  25.222   2.296  1.00 28.82     0.149 C 
BRANCH  41  42
HETATM   42  O4  MK1 B 902       6.676  26.308   3.211  1.00 28.32    -0.393 OA
HETATM   43  H4  MK1 B 902       7.419  26.877   3.043  1.00  0.00     0.210 HD
ENDBRANCH  41  42
ENDBRANCH  30  33
ENDBRANCH  28  29
BRANCH  28  44
HETATM   44  C14 MK1 B 902       9.965  26.129   5.119  1.00 28.67     0.052 C 
BRANCH  44  45
HETATM   45  C15 MK1 B 902       9.562  26.804   6.379  1.00 26.89    -0.057 A 
HETATM   46  C16 MK1 B 902      10.219  26.587   7.592  1.00 29.22     0.007 A 
HETATM   47  C17 MK1 B 902       9.785  27.212   8.752  1.00 29.22     0.001 A 
HETATM   48  C18 MK1 B 902       8.678  28.061   8.685  1.00 30.97     0.000 A 
HETATM   49  C19 MK1 B 902       8.022  28.288   7.469  1.00 29.25     0.001 A 
HETATM   50  C20 MK1 B 902       8.470  27.652   6.311  1.00 29.96     0.007 A 
ENDBRANCH  44  45
ENDBRANCH  28  44
ENDBRANCH  27  28
ENDBRANCH  24  27
ENDBRANCH  23  24
ENDBRANCH   4  23
TORSDOF 14
ENDMDL
MODEL 11
REMARK VINA RESULT:      -9.5      2.056      4.127
REMARK  14 active torsions:
REMARK  status: ('A' for Active; 'I' for Inactive)
REMARK    1  A    between atoms: N1_1  and  C31_43 
REMARK    2  A    between atoms: C2_3  and  C3_4 
REMARK       I    between atoms: C3_4  and  N2_6 
REMARK    3  A    between atoms: N2_6  and  C4_8 
REMARK    4  A    between atoms: N3_12  and  C10_15 
REMARK    5  A    between atoms: C10_15  and  C11_16 
REMARK    6  A    between atoms: C11_16  and  O2_17 
REMARK    7  A    between atoms: C11_16  and  C12_19 
REMARK    8  A    between atoms: C12_19  and  C13_20 
REMARK    9  A    between atoms: C13_20  and  C21_28 
REMARK   10  A    between atoms: C13_20  and  C14_21 
REMARK   11  A    between atoms: C14_21  and  C15_22 
REMARK       I    between atoms: C21_28  and  N4_30 
REMARK   12  A    between atoms: N4_30  and  C22_32 
REMARK   13  A    between atoms: C23_33  and  O4_34 
REMARK   14  A    between atoms: C31_43  and  C32_44 
ROOT
HETATM    1  N1  MK1 B 902       8.433  27.205   7.364  1.00 28.25     0.096 N 
HETATM    2  C1  MK1 B 902       8.994  26.476   6.195  1.00 30.30     0.307 C 
HETATM    3  C2  MK1 B 902       9.622  25.105   6.347  1.00 27.27     0.200 C 
HETATM    4  N3  MK1 B 902      10.716  25.380   7.344  1.00 28.91    -0.395 N 
HETATM    5  C8  MK1 B 902      10.434  26.283   8.488  1.00 26.24     0.148 C 
HETATM    6  C9  MK1 B 902       9.484  27.439   8.251  1.00 27.47     0.292 C 
ENDROOT
BRANCH   1   7
HETATM    7  C31 MK1 B 902       7.592  28.375   7.087  1.00 36.25     0.312 C 
BRANCH   7   8
HETATM    8  C32 MK1 B 902       6.069  28.250   6.951  1.00 42.75    -0.015 A 
HETATM    9  C36 MK1 B 902       5.511  27.004   7.141  1.00 44.71     0.011 A 
HETATM   10  C35 MK1 B 902       4.131  26.880   7.000  1.00 49.34     0.018 A 
HETATM   11  C34 MK1 B 902       3.360  27.999   6.673  1.00 50.60     0.087 A 
HETATM   12  N5  MK1 B 902       3.844  29.290   6.464  1.00 51.38    -0.375 N 
HETATM   13  C33 MK1 B 902       5.239  29.331   6.625  1.00 47.41     0.096 A 
HETATM   14  H5  MK1 B 902       3.264  30.095   6.227  1.00  0.00     0.164 HD
ENDBRANCH   7   8
ENDBRANCH   1   7
BRANCH   3  15
HETATM   15  C3  MK1 B 902      10.144  24.671   5.004  1.00 28.85     0.242 C 
HETATM   16  O1  MK1 B 902      11.244  25.044   4.617  1.00 29.59    -0.271 OA
HETATM   17  N2  MK1 B 902       9.360  23.895   4.281  1.00 22.29    -0.351 N 
HETATM   18  H2  MK1 B 902       8.443  23.713   4.689  1.00  0.00     0.163 HD
BRANCH  17  19
HETATM   19  C4  MK1 B 902       9.589  23.269   3.018  1.00 23.47     0.022 C 
HETATM   20  C7  MK1 B 902      10.451  24.051   2.125  1.00 22.75     0.037 C 
HETATM   21  C5  MK1 B 902       8.232  23.210   2.293  1.00 27.66     0.037 C 
HETATM   22  C6  MK1 B 902      10.135  22.000   3.125  1.00 21.71     0.037 C 
ENDBRANCH  17  19
ENDBRANCH   3  15
BRANCH   4  23
HETATM   23  C10 MK1 B 902      11.496  24.252   7.811  1.00 20.86     0.149 C 
BRANCH  23  24
HETATM   24  C11 MK1 B 902      12.967  24.292   7.396  1.00 21.68     0.136 C 
BRANCH  24  25
HETATM   25  O2  MK1 B 902      12.942  25.622   6.973  1.00 15.87    -0.394 OA
HETATM   26  H2  MK1 B 902      13.159  26.171   7.717  1.00  0.00     0.210 HD
ENDBRANCH  24  25
BRANCH  24  27
HETATM   27  C12 MK1 B 902      14.146  24.125   8.373  1.00 21.49     0.047 C 
BRANCH  27  28
HETATM   28  C13 MK1 B 902      15.323  23.203   8.027  1.00 26.89     0.084 C 
BRANCH  28  29
HETATM   29  C21 MK1 B 902      15.592  23.155   6.527  1.00 29.35     0.222 C 
HETATM   30  N4  MK1 B 902      15.597  21.939   5.988  1.00 31.19    -0.350 N 
HETATM   31  H4  MK1 B 902      15.666  21.124   6.598  1.00  0.00     0.163 HD
HETATM   32  O3  MK1 B 902      15.679  24.201   5.868  1.00 32.66    -0.273 OA
BRANCH  30  33
HETATM   33  C22 MK1 B 902      15.508  21.743   4.551  1.00 29.22     0.147 C 
HETATM   34  C30 MK1 B 902      15.819  20.336   3.978  1.00 31.86    -0.027 A 
HETATM   35  C29 MK1 B 902      16.724  19.376   4.303  1.00 27.70     0.010 A 
HETATM   36  C25 MK1 B 902      14.875  19.995   2.789  1.00 31.29    -0.047 A 
HETATM   37  C28 MK1 B 902      16.789  18.172   3.615  1.00 29.01     0.001 A 
HETATM   38  C27 MK1 B 902      15.923  17.870   2.553  1.00 28.00     0.001 A 
HETATM   39  C26 MK1 B 902      14.956  18.790   2.133  1.00 32.00     0.008 A 
HETATM   40  C24 MK1 B 902      14.017  21.235   2.730  1.00 32.05     0.073 C 
HETATM   41  C23 MK1 B 902      14.107  22.007   4.026  1.00 28.82     0.149 C 
BRANCH  41  42
HETATM   42  O4  MK1 B 902      13.140  21.625   4.993  1.00 28.32    -0.393 OA
HETATM   43  H4  MK1 B 902      13.111  22.261   5.699  1.00  0.00     0.210 HD
ENDBRANCH  41  42
ENDBRANCH  30  33
ENDBRANCH  28  29
BRANCH  28  44
HETATM   44  C14 MK1 B 902      15.110  21.768   8.541  1.00 28.67     0.052 C 
BRANCH  44  45
HETATM   45  C15 MK1 B 902      16.358  21.164   9.071  1.00 26.89    -0.057 A 
HETATM   46  C16 MK1 B 902      17.626  21.662   8.762  1.00 29.22     0.007 A 
HETATM   47  C17 MK1 B 902      18.767  21.043   9.250  1.00 29.22     0.001 A 
HETATM   48  C18 MK1 B 902      18.625  19.911  10.056  1.00 30.97     0.000 A 
HETATM   49  C19 MK1 B 902      17.356  19.413  10.375  1.00 29.25     0.001 A 
HETATM   50  C20 MK1 B 902      16.218  20.047   9.876  1.00 29.96     0.007 A 
ENDBRANCH  44  45
ENDBRANCH  28  44
ENDBRANCH  27  28
ENDBRANCH  24  27
ENDBRANCH  23  24
ENDBRANCH   4  23
TORSDOF 14
ENDMDL
MODEL 12
REMARK VINA RESULT:      -9.4      2.510      6.262
REMARK  14 active torsions:
REMARK  status: ('A' for Active; 'I' for Inactive)
REMARK    1  A    between atoms: N1_1  and  C31_43 
REMARK    2  A    between atoms: C2_3  and  C3_4 
REMARK       I    between atoms: C3_4  and  N2_6 
REMARK    3  A    between atoms: N2_6  and  C4_8 
REMARK    4  A    between atoms: N3_12  and  C10_15 
REMARK    5  A    between atoms: C10_15  and  C11_16 
REMARK    6  A    between atoms: C11_16  and  O2_17 
REMARK    7  A    between atoms: C11_16  and  C12_19 
REMARK    8  A    between atoms: C12_19  and  C13_20 
REMARK    9  A    between atoms: C13_20  and  C21_28 
REMARK   10  A    between atoms: C13_20  and  C14_21 
REMARK   11  A    between atoms: C14_21  and  C15_22 
REMARK       I    between atoms: C21_28  and  N4_30 
REMARK   12  A    between atoms: N4_30  and  C22_32 
REMARK   13  A    between atoms: C23_33  and  O4_34 
REMARK   14  A    between atoms: C31_43  and  C32_44 
ROOT
HETATM    1  N1  MK1 B 902      11.155  25.525   8.725  1.00 28.25     0.096 N 
HETATM    2  C1  MK1 B 902      10.944  24.740   7.479  1.00 30.30     0.307 C 
HETATM    3  C2  MK1 B 902      11.783  23.517   7.166  1.00 27.27     0.200 C 
HETATM    4  N3  MK1 B 902      13.174  24.092   7.172  1.00 28.91    -0.395 N 
HETATM    5  C8  MK1 B 902      13.535  25.087   8.213  1.00 26.24     0.148 C 
HETATM    6  C9  MK1 B 902      12.451  26.037   8.679  1.00 27.47     0.292 C 
ENDROOT
BRANCH   1   7
HETATM    7  C31 MK1 B 902      10.121  26.501   9.088  1.00 36.25     0.312 C 
BRANCH   7   8
HETATM    8  C32 MK1 B 902       8.951  26.812   8.147  1.00 42.75    -0.015 A 
HETATM    9  C36 MK1 B 902       9.208  27.603   7.047  1.00 44.71     0.011 A 
HETATM   10  C35 MK1 B 902       8.145  27.906   6.199  1.00 49.34     0.018 A 
HETATM   11  C34 MK1 B 902       6.868  27.412   6.480  1.00 50.60     0.087 A 
HETATM   12  N5  MK1 B 902       6.524  26.608   7.566  1.00 51.38    -0.375 N 
HETATM   13  C33 MK1 B 902       7.646  26.349   8.369  1.00 47.41     0.096 A 
HETATM   14  H5  MK1 B 902       5.584  26.257   7.752  1.00  0.00     0.164 HD
ENDBRANCH   7   8
ENDBRANCH   1   7
BRANCH   3  15
HETATM   15  C3  MK1 B 902      11.369  22.990   5.819  1.00 28.85     0.242 C 
HETATM   16  O1  MK1 B 902      11.537  21.810   5.538  1.00 29.59    -0.271 OA
HETATM   17  N2  MK1 B 902      10.840  23.854   4.975  1.00 22.29    -0.351 N 
HETATM   18  H2  MK1 B 902      10.818  24.819   5.308  1.00  0.00     0.163 HD
BRANCH  17  19
HETATM   19  C4  MK1 B 902      10.293  23.657   3.671  1.00 23.47     0.022 C 
HETATM   20  C7  MK1 B 902      11.308  23.408   2.642  1.00 22.75     0.037 C 
HETATM   21  C5  MK1 B 902       9.637  24.986   3.254  1.00 27.66     0.037 C 
HETATM   22  C6  MK1 B 902       9.372  22.624   3.613  1.00 21.71     0.037 C 
ENDBRANCH  17  19
ENDBRANCH   3  15
BRANCH   4  23
HETATM   23  C10 MK1 B 902      14.280  23.172   6.993  1.00 20.86     0.149 C 
BRANCH  23  24
HETATM   24  C11 MK1 B 902      14.476  22.195   8.153  1.00 21.68     0.136 C 
BRANCH  24  25
HETATM   25  O2  MK1 B 902      13.702  21.178   7.594  1.00 15.87    -0.394 OA
HETATM   26  H2  MK1 B 902      14.211  20.376   7.613  1.00  0.00     0.210 HD
ENDBRANCH  24  25
BRANCH  24  27
HETATM   27  C12 MK1 B 902      15.835  21.593   8.555  1.00 21.49     0.047 C 
BRANCH  27  28
HETATM   28  C13 MK1 B 902      16.413  20.391   7.794  1.00 26.89     0.084 C 
BRANCH  28  29
HETATM   29  C21 MK1 B 902      17.520  19.695   8.577  1.00 29.35     0.222 C 
HETATM   30  N4  MK1 B 902      17.113  18.966   9.613  1.00 31.19    -0.350 N 
HETATM   31  H4  MK1 B 902      16.166  19.093   9.971  1.00  0.00     0.163 HD
HETATM   32  O3  MK1 B 902      18.694  19.733   8.180  1.00 32.66    -0.273 OA
BRANCH  30  33
HETATM   33  C22 MK1 B 902      17.985  17.993  10.248  1.00 29.22     0.147 C 
HETATM   34  C30 MK1 B 902      18.744  18.411  11.535  1.00 31.86    -0.027 A 
HETATM   35  C29 MK1 B 902      19.331  19.570  11.935  1.00 27.70     0.010 A 
HETATM   36  C25 MK1 B 902      18.824  17.232  12.546  1.00 31.29    -0.047 A 
HETATM   37  C28 MK1 B 902      19.954  19.683  13.171  1.00 29.01     0.001 A 
HETATM   38  C27 MK1 B 902      20.007  18.616  14.081  1.00 28.00     0.001 A 
HETATM   39  C26 MK1 B 902      19.438  17.377  13.768  1.00 32.00     0.008 A 
HETATM   40  C24 MK1 B 902      18.071  16.156  11.803  1.00 32.05     0.073 C 
HETATM   41  C23 MK1 B 902      17.226  16.759  10.705  1.00 28.82     0.149 C 
BRANCH  41  42
HETATM   42  O4  MK1 B 902      15.914  17.114  11.117  1.00 28.32    -0.393 OA
HETATM   43  H4  MK1 B 902      15.295  16.438  10.864  1.00  0.00     0.210 HD
ENDBRANCH  41  42
ENDBRANCH  30  33
ENDBRANCH  28  29
BRANCH  28  44
HETATM   44  C14 MK1 B 902      16.955  20.784   6.409  1.00 28.67     0.052 C 
BRANCH  44  45
HETATM   45  C15 MK1 B 902      16.278  20.055   5.306  1.00 26.89    -0.057 A 
HETATM   46  C16 MK1 B 902      16.330  18.665   5.180  1.00 29.22     0.007 A 
HETATM   47  C17 MK1 B 902      15.714  18.029   4.113  1.00 29.22     0.001 A 
HETATM   48  C18 MK1 B 902      15.041  18.804   3.166  1.00 30.97     0.000 A 
HETATM   49  C19 MK1 B 902      14.980  20.197   3.293  1.00 29.25     0.001 A 
HETATM   50  C20 MK1 B 902      15.604  20.822   4.372  1.00 29.96     0.007 A 
ENDBRANCH  44  45
ENDBRANCH  28  44
ENDBRANCH  27  28
ENDBRANCH  24  27
ENDBRANCH  23  24
ENDBRANCH   4  23
TORSDOF 14
ENDMDL
MODEL 13
REMARK VINA RESULT:      -8.6      5.380     10.880
REMARK  14 active torsions:
REMARK  status: ('A' for Active; 'I' for Inactive)
REMARK    1  A    between atoms: N1_1  and  C31_43 
REMARK    2  A    between atoms: C2_3  and  C3_4 
REMARK       I    between atoms: C3_4  and  N2_6 
REMARK    3  A    between atoms: N2_6  and  C4_8 
REMARK    4  A    between atoms: N3_12  and  C10_15 
REMARK    5  A    between atoms: C10_15  and  C11_16 
REMARK    6  A    between atoms: C11_16  and  O2_17 
REMARK    7  A    between atoms: C11_16  and  C12_19 
REMARK    8  A    between atoms: C12_19  and  C13_20 
REMARK    9  A    between atoms: C13_20  and  C21_28 
REMARK   10  A    between atoms: C13_20  and  C14_21 
REMARK   11  A    between atoms: C14_21  and  C15_22 
REMARK       I    between atoms: C21_28  and  N4_30 
REMARK   12  A    between atoms: N4_30  and  C22_32 
REMARK   13  A    between atoms: C23_33  and  O4_34 
REMARK   14  A    between atoms: C31_43  and  C32_44 
ROOT
HETATM    1  N1  MK1 B 902      19.430  15.696   5.814  1.00 28.25     0.096 N 
HETATM    2  C1  MK1 B 902      18.664  16.392   4.746  1.00 30.30     0.307 C 
HETATM    3  C2  MK1 B 902      18.771  17.891   4.547  1.00 27.27     0.200 C 
HETATM    4  N3  MK1 B 902      18.346  18.409   5.895  1.00 28.91    -0.395 N 
HETATM    5  C8  MK1 B 902      18.821  17.710   7.115  1.00 26.24     0.148 C 
HETATM    6  C9  MK1 B 902      18.997  16.207   7.037  1.00 27.47     0.292 C 
ENDROOT
BRANCH   1   7
HETATM    7  C31 MK1 B 902      19.496  14.231   5.748  1.00 36.25     0.312 C 
BRANCH   7   8
HETATM    8  C32 MK1 B 902      19.860  13.392   6.979  1.00 42.75    -0.015 A 
HETATM    9  C36 MK1 B 902      18.831  12.780   7.662  1.00 44.71     0.011 A 
HETATM   10  C35 MK1 B 902      19.152  12.032   8.792  1.00 49.34     0.018 A 
HETATM   11  C34 MK1 B 902      20.485  11.926   9.202  1.00 50.60     0.087 A 
HETATM   12  N5  MK1 B 902      21.581  12.512   8.571  1.00 51.38    -0.375 N 
HETATM   13  C33 MK1 B 902      21.175  13.245   7.443  1.00 47.41     0.096 A 
HETATM   14  H5  MK1 B 902      22.547  12.421   8.885  1.00  0.00     0.164 HD
ENDBRANCH   7   8
ENDBRANCH   1   7
BRANCH   3  15
HETATM   15  C3  MK1 B 902      17.835  18.291   3.440  1.00 28.85     0.242 C 
HETATM   16  O1  MK1 B 902      18.251  18.424   2.296  1.00 29.59    -0.271 OA
HETATM   17  N2  MK1 B 902      16.575  18.498   3.768  1.00 22.29    -0.351 N 
HETATM   18  H2  MK1 B 902      16.373  18.420   4.765  1.00  0.00     0.163 HD
BRANCH  17  19
HETATM   19  C4  MK1 B 902      15.447  18.815   2.951  1.00 23.47     0.022 C 
HETATM   20  C7  MK1 B 902      15.807  19.253   1.599  1.00 22.75     0.037 C 
HETATM   21  C5  MK1 B 902      14.762  20.039   3.585  1.00 27.66     0.037 C 
HETATM   22  C6  MK1 B 902      14.546  17.768   2.829  1.00 21.71     0.037 C 
ENDBRANCH  17  19
ENDBRANCH   3  15
BRANCH   4  23
HETATM   23  C10 MK1 B 902      18.412  19.840   6.113  1.00 20.86     0.149 C 
BRANCH  23  24
HETATM   24  C11 MK1 B 902      19.120  20.244   7.408  1.00 21.68     0.136 C 
BRANCH  24  25
HETATM   25  O2  MK1 B 902      20.167  20.917   6.774  1.00 15.87    -0.394 OA
HETATM   26  H2  MK1 B 902      20.003  20.901   5.839  1.00  0.00     0.210 HD
ENDBRANCH  24  25
BRANCH  24  27
HETATM   27  C12 MK1 B 902      18.518  21.188   8.464  1.00 21.49     0.047 C 
BRANCH  27  28
HETATM   28  C13 MK1 B 902      17.281  20.769   9.273  1.00 26.89     0.084 C 
BRANCH  28  29
HETATM   29  C21 MK1 B 902      17.552  19.548  10.143  1.00 29.35     0.222 C 
HETATM   30  N4  MK1 B 902      18.683  19.586  10.842  1.00 31.19    -0.350 N 
HETATM   31  H4  MK1 B 902      19.398  20.270  10.596  1.00  0.00     0.163 HD
HETATM   32  O3  MK1 B 902      16.702  18.652  10.256  1.00 32.66    -0.273 OA
BRANCH  30  33
HETATM   33  C22 MK1 B 902      18.924  18.675  11.948  1.00 29.22     0.147 C 
HETATM   34  C30 MK1 B 902      19.752  17.391  11.680  1.00 31.86    -0.027 A 
HETATM   35  C29 MK1 B 902      19.822  16.530  10.631  1.00 27.70     0.010 A 
HETATM   36  C25 MK1 B 902      20.677  17.059  12.885  1.00 31.29    -0.047 A 
HETATM   37  C28 MK1 B 902      20.672  15.433  10.643  1.00 29.01     0.001 A 
HETATM   38  C27 MK1 B 902      21.513  15.152  11.731  1.00 28.00     0.001 A 
HETATM   39  C26 MK1 B 902      21.517  15.971  12.865  1.00 32.00     0.008 A 
HETATM   40  C24 MK1 B 902      20.364  18.202  13.820  1.00 32.05     0.073 C 
HETATM   41  C23 MK1 B 902      19.706  19.337  13.071  1.00 28.82     0.149 C 
BRANCH  41  42
HETATM   42  O4  MK1 B 902      20.621  20.285  12.540  1.00 28.32    -0.393 OA
HETATM   43  H4  MK1 B 902      21.361  20.392  13.127  1.00  0.00     0.210 HD
ENDBRANCH  41  42
ENDBRANCH  30  33
ENDBRANCH  28  29
BRANCH  28  44
HETATM   44  C14 MK1 B 902      16.067  20.480   8.372  1.00 28.67     0.052 C 
BRANCH  44  45
HETATM   45  C15 MK1 B 902      15.413  21.720   7.885  1.00 26.89    -0.057 A 
HETATM   46  C16 MK1 B 902      14.830  22.651   8.747  1.00 29.22     0.007 A 
HETATM   47  C17 MK1 B 902      14.197  23.779   8.245  1.00 29.22     0.001 A 
HETATM   48  C18 MK1 B 902      14.152  23.965   6.862  1.00 30.97     0.000 A 
HETATM   49  C19 MK1 B 902      14.742  23.038   5.995  1.00 29.25     0.001 A 
HETATM   50  C20 MK1 B 902      15.376  21.910   6.514  1.00 29.96     0.007 A 
ENDBRANCH  44  45
ENDBRANCH  28  44
ENDBRANCH  27  28
ENDBRANCH  24  27
ENDBRANCH  23  24
ENDBRANCH   4  23
TORSDOF 14
ENDMDL
MODEL 14
REMARK VINA RESULT:      -8.6      5.588      8.840
REMARK  14 active torsions:
REMARK  status: ('A' for Active; 'I' for Inactive)
REMARK    1  A    between atoms: N1_1  and  C31_43 
REMARK    2  A    between atoms: C2_3  and  C3_4 
REMARK       I    between atoms: C3_4  and  N2_6 
REMARK    3  A    between atoms: N2_6  and  C4_8 
REMARK    4  A    between atoms: N3_12  and  C10_15 
REMARK    5  A    between atoms: C10_15  and  C11_16 
REMARK    6  A    between atoms: C11_16  and  O2_17 
REMARK    7  A    between atoms: C11_16  and  C12_19 
REMARK    8  A    between atoms: C12_19  and  C13_20 
REMARK    9  A    between atoms: C13_20  and  C21_28 
REMARK   10  A    between atoms: C13_20  and  C14_21 
REMARK   11  A    between atoms: C14_21  and  C15_22 
REMARK       I    between atoms: C21_28  and  N4_30 
REMARK   12  A    between atoms: N4_30  and  C22_32 
REMARK   13  A    between atoms: C23_33  and  O4_34 
REMARK   14  A    between atoms: C31_43  and  C32_44 
ROOT
HETATM    1  N1  MK1 B 902       2.734  25.931   3.853  1.00 28.25     0.096 N 
HETATM    2  C1  MK1 B 902       2.654  27.416   3.869  1.00 30.30     0.307 C 
HETATM    3  C2  MK1 B 902       3.632  28.250   4.673  1.00 27.27     0.200 C 
HETATM    4  N3  MK1 B 902       3.416  27.717   6.063  1.00 28.91    -0.395 N 
HETATM    5  C8  MK1 B 902       3.238  26.255   6.252  1.00 26.24     0.148 C 
HETATM    6  C9  MK1 B 902       2.523  25.489   5.158  1.00 27.47     0.292 C 
ENDROOT
BRANCH   1   7
HETATM    7  C31 MK1 B 902       1.950  25.227   2.831  1.00 36.25     0.312 C 
BRANCH   7   8
HETATM    8  C32 MK1 B 902       2.596  24.726   1.534  1.00 42.75    -0.015 A 
HETATM    9  C36 MK1 B 902       3.793  25.294   1.154  1.00 44.71     0.011 A 
HETATM   10  C35 MK1 B 902       4.374  24.858  -0.034  1.00 49.34     0.018 A 
HETATM   11  C34 MK1 B 902       3.740  23.875  -0.800  1.00 50.60     0.087 A 
HETATM   12  N5  MK1 B 902       2.533  23.251  -0.490  1.00 51.38    -0.375 N 
HETATM   13  C33 MK1 B 902       2.014  23.744   0.719  1.00 47.41     0.096 A 
HETATM   14  H5  MK1 B 902       2.087  22.535  -1.062  1.00  0.00     0.164 HD
ENDBRANCH   7   8
ENDBRANCH   1   7
BRANCH   3  15
HETATM   15  C3  MK1 B 902       3.250  29.698   4.530  1.00 28.85     0.242 C 
HETATM   16  O1  MK1 B 902       2.306  30.021   3.821  1.00 29.59    -0.271 OA
HETATM   17  N2  MK1 B 902       3.981  30.577   5.187  1.00 22.29    -0.351 N 
HETATM   18  H2  MK1 B 902       4.779  30.183   5.686  1.00  0.00     0.163 HD
BRANCH  17  19
HETATM   19  C4  MK1 B 902       3.836  31.993   5.310  1.00 23.47     0.022 C 
HETATM   20  C7  MK1 B 902       4.750  32.592   6.288  1.00 22.75     0.037 C 
HETATM   21  C5  MK1 B 902       2.431  32.252   5.884  1.00 27.66     0.037 C 
HETATM   22  C6  MK1 B 902       4.000  32.668   4.111  1.00 21.71     0.037 C 
ENDBRANCH  17  19
ENDBRANCH   3  15
BRANCH   4  23
HETATM   23  C10 MK1 B 902       4.267  28.231   7.118  1.00 20.86     0.149 C 
BRANCH  23  24
HETATM   24  C11 MK1 B 902       5.741  27.848   6.975  1.00 21.68     0.136 C 
BRANCH  24  25
HETATM   25  O2  MK1 B 902       6.207  29.163   6.916  1.00 15.87    -0.394 OA
HETATM   26  H2  MK1 B 902       6.210  29.433   6.005  1.00  0.00     0.210 HD
ENDBRANCH  24  25
BRANCH  24  27
HETATM   27  C12 MK1 B 902       6.549  27.105   8.054  1.00 21.49     0.047 C 
BRANCH  27  28
HETATM   28  C13 MK1 B 902       8.076  26.983   7.941  1.00 26.89     0.084 C 
BRANCH  28  29
HETATM   29  C21 MK1 B 902       8.540  26.926   6.491  1.00 29.35     0.222 C 
HETATM   30  N4  MK1 B 902       8.351  25.760   5.877  1.00 31.19    -0.350 N 
HETATM   31  H4  MK1 B 902       8.147  24.931   6.435  1.00  0.00     0.163 HD
HETATM   32  O3  MK1 B 902       8.954  27.946   5.920  1.00 32.66    -0.273 OA
BRANCH  30  33
HETATM   33  C22 MK1 B 902       8.429  25.640   4.431  1.00 29.22     0.147 C 
HETATM   34  C30 MK1 B 902       9.006  24.332   3.829  1.00 31.86    -0.027 A 
HETATM   35  C29 MK1 B 902      10.014  23.501   4.202  1.00 27.70     0.010 A 
HETATM   36  C25 MK1 B 902       8.242  23.926   2.537  1.00 31.29    -0.047 A 
HETATM   37  C28 MK1 B 902      10.330  22.364   3.471  1.00 29.01     0.001 A 
HETATM   38  C27 MK1 B 902       9.625  22.001   2.313  1.00 28.00     0.001 A 
HETATM   39  C26 MK1 B 902       8.570  22.788   1.838  1.00 32.00     0.008 A 
HETATM   40  C24 MK1 B 902       7.212  25.024   2.447  1.00 32.05     0.073 C 
HETATM   41  C23 MK1 B 902       7.059  25.722   3.778  1.00 28.82     0.149 C 
BRANCH  41  42
HETATM   42  O4  MK1 B 902       6.076  25.142   4.623  1.00 28.32    -0.393 OA
HETATM   43  H4  MK1 B 902       5.269  25.643   4.581  1.00  0.00     0.210 HD
ENDBRANCH  41  42
ENDBRANCH  30  33
ENDBRANCH  28  29
BRANCH  28  44
HETATM   44  C14 MK1 B 902       8.618  25.751   8.686  1.00 28.67     0.052 C 
BRANCH  44  45
HETATM   45  C15 MK1 B 902      10.091  25.612   8.557  1.00 26.89    -0.057 A 
HETATM   46  C16 MK1 B 902      10.686  24.638   7.752  1.00 29.22     0.007 A 
HETATM   47  C17 MK1 B 902      12.067  24.521   7.689  1.00 29.22     0.001 A 
HETATM   48  C18 MK1 B 902      12.851  25.393   8.448  1.00 30.97     0.000 A 
HETATM   49  C19 MK1 B 902      12.258  26.376   9.250  1.00 29.25     0.001 A 
HETATM   50  C20 MK1 B 902      10.868  26.482   9.302  1.00 29.96     0.007 A 
ENDBRANCH  44  45
ENDBRANCH  28  44
ENDBRANCH  27  28
ENDBRANCH  24  27
ENDBRANCH  23  24
ENDBRANCH   4  23
TORSDOF 14
ENDMDL
